@<TRIPOS>MOLECULE
ABI 
91 95 0 0 0
SMALL
USER_CHARGES
#CGenFF output mol2 file
@<TRIPOS>ATOM
1	N     9.0450     5.2230     0.0770	N.2	1	ABL1    -0.5990
2	C1    -0.9000    -1.2900     1.1890	C.3	1	ABL1     0.1870
3	C2    -0.4660     0.1220     0.7560	C.3	1	ABL1    -0.1960
4	C3     0.1190     0.9000     1.9430	C.3	1	ABL1    -0.1740
5	C4     1.4770     0.3090     2.4070	C.3	1	ABL1    -0.0010
6	C5     1.5660     0.4050     3.9470	C.3	1	ABL1    -0.2720
7	C6     1.4580    -1.1670     2.0240	C.2	1	ABL1     0.0030
8	C7     2.5230    -1.8120     1.5230	C.2	1	ABL1    -0.1530
9	C8     3.8470    -1.1700     1.2320	C.3	1	ABL1    -0.1780
10	C9     3.9870     0.2190     1.8690	C.3	1	ABL1    -0.0780
11	C10     5.1370     0.9950     1.2190	C.3	1	ABL1    -0.1360
12	C11     6.5070     0.3240     1.0910	C.3	1	ABL1    -0.1570
13	C12     7.3150     1.5540     0.7690	C.2	1	ABL1    -0.0660
14	C13     6.7450     2.7180     1.1430	C.2	1	ABL1    -0.0070
15	C14     7.3210     3.9310     0.9860	C.2	1	ABL1     0.1060
16	C15     6.8350     5.0570     1.5440	C.2	1	ABL1    -0.1130
17	C16     7.4480     6.2360     1.3590	C.2	1	ABL1    -0.1230
18	C17     8.5590     6.2600     0.6100	C.2	1	ABL1     0.1820
19	C18     8.4490     4.1210     0.2650	C.2	1	ABL1     0.1680
20	C19     5.4220     2.3820     1.8510	C.3	1	ABL1    -0.1710
21	C20     5.7270     2.3300     3.3640	C.3	1	ABL1    -0.2710
22	C21     4.1410     3.1840     1.5400	C.3	1	ABL1    -0.1860
23	C22     2.8830     2.5030     2.1210	C.3	1	ABL1    -0.1770
24	C23     2.6760     1.0250     1.7130	C.3	1	ABL1    -0.0980
25	C24     0.1280    -1.8730     2.1710	C.3	1	ABL1    -0.1850
26	O1    -2.1620    -1.1730     1.7930	O.3	1	ABL1    -0.4590
27	H1    -0.9640    -1.8950     0.2570	H	1	ABL1     0.0900
28	H2    -1.3320     0.6740     0.3180	H	1	ABL1     0.0900
29	H3     0.2960     0.0640    -0.0570	H	1	ABL1     0.0900
30	H4    -0.6310     0.8550     2.7680	H	1	ABL1     0.0900
31	H5     0.2050     1.9790     1.6910	H	1	ABL1     0.0900
32	H6     1.4510     1.4510     4.3080	H	1	ABL1     0.0900
33	H7     0.7600    -0.1700     4.4540	H	1	ABL1     0.0900
34	H8     2.5240     0.0060     4.3430	H	1	ABL1     0.0900
35	H9     2.4260    -2.8720     1.2320	H	1	ABL1     0.1500
36	H10     3.9320    -1.1010     0.1230	H	1	ABL1     0.0900
37	H11     4.6650    -1.8350     1.5950	H	1	ABL1     0.0900
38	H12     4.2170     0.0760     2.9490	H	1	ABL1     0.0900
39	H13     4.8190     1.1700     0.1560	H	1	ABL1     0.0900
40	H14     6.5370    -0.4210     0.2640	H	1	ABL1     0.0900
41	H15     6.8550    -0.1440     2.0380	H	1	ABL1     0.0900
42	H16     8.2980     1.4180     0.3010	H	1	ABL1     0.1750
43	H17     5.9500     5.0660     2.1910	H	1	ABL1     0.1150
44	H18     7.0600     7.1590     1.8190	H	1	ABL1     0.1150
45	H19     9.0960     7.2070     0.4360	H	1	ABL1     0.1220
46	H20     8.9600     3.2970    -0.2570	H	1	ABL1     0.1220
47	H21     6.5980     1.6770     3.5920	H	1	ABL1     0.0900
48	H22     5.9680     3.3410     3.7600	H	1	ABL1     0.0900
49	H23     4.8840     1.9500     3.9760	H	1	ABL1     0.0900
50	H24     4.1740     4.2120     1.9600	H	1	ABL1     0.0900
51	H25     4.0230     3.3040     0.4380	H	1	ABL1     0.0900
52	H26     2.0000     3.1150     1.8210	H	1	ABL1     0.0900
53	H27     2.9370     2.5840     3.2290	H	1	ABL1     0.0900
54	H28     2.4520     1.0400     0.6150	H	1	ABL1     0.0900
55	H29     0.2510    -2.9650     1.9930	H	1	ABL1     0.0900
56	H30    -0.2130    -1.7720     3.2250	H	1	ABL1     0.0900
57	C25    -7.3280    -1.7240    -8.6600	C.3	1	ABL1    -0.2730
58	C26    -6.0940    -1.7960    -7.7500	C.3	1	ABL1    -0.1770
59	C27    -6.4800    -1.8060    -6.2630	C.3	1	ABL1    -0.1810
60	C28    -5.2460    -1.8800    -5.3480	C.3	1	ABL1    -0.1790
61	C29    -5.6350    -1.8940    -3.8610	C.3	1	ABL1    -0.1800
62	C30    -4.4040    -1.9740    -2.9430	C.3	1	ABL1    -0.1800
63	C31    -4.7980    -1.9970    -1.4570	C.3	1	ABL1    -0.1800
64	C32    -3.5760    -2.0860    -0.5420	C.3	1	ABL1     0.0360
65	C33    -3.0320    -2.2850     1.7840	C.3	1	ABL1     0.3790
66	C34    -3.8030    -2.2030     3.1090	C.3	1	ABL1    -0.2690
67	C35    -2.3950    -3.6700     1.7200	C.3	1	ABL1    -0.2690
68	O2    -4.0200    -2.1030     0.7910	O.3	1	ABL1    -0.4020
69	H31    -7.0330    -1.7170    -9.7340	H	1	ABL1     0.0900
70	H32    -7.9980    -2.5990    -8.4980	H	1	ABL1     0.0900
71	H33    -7.9170    -0.7990    -8.4650	H	1	ABL1     0.0900
72	H34    -5.4320    -0.9220    -7.9590	H	1	ABL1     0.0900
73	H35    -5.5140    -2.7180    -7.9920	H	1	ABL1     0.0900
74	H36    -7.1440    -2.6800    -6.0600	H	1	ABL1     0.0900
75	H37    -7.0610    -0.8830    -6.0260	H	1	ABL1     0.0900
76	H38    -4.5830    -1.0060    -5.5490	H	1	ABL1     0.0900
77	H39    -4.6650    -2.8020    -5.5860	H	1	ABL1     0.0900
78	H40    -6.3010    -2.7680    -3.6620	H	1	ABL1     0.0900
79	H41    -6.2150    -0.9710    -3.6210	H	1	ABL1     0.0900
80	H42    -3.7400    -1.0980    -3.1360	H	1	ABL1     0.0900
81	H43    -3.8220    -2.8950    -3.1850	H	1	ABL1     0.0900
82	H44    -5.4670    -2.8700    -1.2650	H	1	ABL1     0.0900
83	H45    -5.3780    -1.0740    -1.2120	H	1	ABL1     0.0900
84	H46    -2.9330    -1.1930    -0.7110	H	1	ABL1     0.0900
85	H47    -3.0130    -3.0160    -0.7750	H	1	ABL1     0.0900
86	H48    -3.1220    -2.3090     3.9840	H	1	ABL1     0.0900
87	H49    -4.5770    -3.0000     3.1850	H	1	ABL1     0.0900
88	H50    -4.3250    -1.2230     3.2140	H	1	ABL1     0.0900
89	H51    -3.1840    -4.4560     1.6840	H	1	ABL1     0.0900
90	H52    -1.7480    -3.8520     0.8370	H	1	ABL1     0.0900
91	H53    -1.7900    -3.8820     2.6300	H	1	ABL1     0.0900
@<TRIPOS>BOND
1	1	19	2
2	2	3	1
3	2	25	1
4	2	27	1
5	3	4	1
6	3	28	1
7	3	29	1
8	4	5	1
9	4	30	1
10	4	31	1
11	5	6	1
12	5	7	1
13	5	24	1
14	6	32	1
15	6	33	1
16	6	34	1
17	7	8	2
18	7	25	1
19	8	9	1
20	8	35	1
21	9	10	1
22	9	36	1
23	9	37	1
24	10	11	1
25	10	24	1
26	10	38	1
27	11	12	1
28	11	20	1
29	11	39	1
30	12	13	1
31	12	40	1
32	12	41	1
33	13	14	2
34	13	42	1
35	14	15	1
36	14	20	1
37	15	16	2
38	15	19	1
39	16	17	1
40	16	43	1
41	17	18	2
42	17	44	1
43	1	18	1
44	18	45	1
45	19	46	1
46	20	21	1
47	20	22	1
48	21	47	1
49	21	48	1
50	21	49	1
51	22	23	1
52	22	50	1
53	22	51	1
54	23	24	1
55	23	52	1
56	23	53	1
57	24	54	1
58	25	55	1
59	25	56	1
60	2	26	1
61	57	58	1
62	57	69	1
63	57	70	1
64	57	71	1
65	58	59	1
66	58	72	1
67	58	73	1
68	59	60	1
69	59	74	1
70	59	75	1
71	60	61	1
72	60	76	1
73	60	77	1
74	61	62	1
75	61	78	1
76	61	79	1
77	62	63	1
78	62	80	1
79	62	81	1
80	63	64	1
81	63	82	1
82	63	83	1
83	64	68	1
84	64	84	1
85	64	85	1
86	26	65	1
87	65	66	1
88	65	67	1
89	66	86	1
90	66	87	1
91	66	88	1
92	67	89	1
93	67	90	1
94	67	91	1
95	65	68	1
