@<TRIPOS>MOLECULE
PTX 
142 143 0 0 0
SMALL
USER_CHARGES
#CGenFF output mol2 file
@<TRIPOS>ATOM
1	C1    13.2170    -0.5890    -0.2180	C.2	1	PTX1     0.1070
2	C2    12.3110    -2.8050     0.0030	C.3	1	PTX1     0.1400
3	C3    10.9460    -3.4510     0.0990	C.2	1	PTX1     0.0130
4	C4    10.2940    -3.5060     1.2720	C.2	1	PTX1    -0.1180
5	C5     9.0680    -4.0460     1.3520	C.2	1	PTX1    -0.1080
6	C6     8.4140    -4.5000     0.2660	C.2	1	PTX1     0.2380
7	C7     6.0610    -4.2370     0.1350	C.3	1	PTX1     0.3830
8	C8     3.7280    -4.6380     0.4830	C.3	1	PTX1     0.0360
9	C9     2.6810    -5.7220     0.2670	C.3	1	PTX1    -0.0090
10	C10     0.3590    -6.0610     0.2790	C.3	1	PTX1    -0.0090
11	C11    -0.9610    -5.3260     0.5130	C.3	1	PTX1    -0.1800
12	C12    -2.1840    -6.2250     0.2750	C.3	1	PTX1    -0.1800
13	C13    -3.4980    -5.4550     0.4930	C.3	1	PTX1    -0.1800
14	C14    -4.7380    -6.3270     0.2360	C.3	1	PTX1    -0.1800
15	C15    -6.0380    -5.5320     0.4400	C.3	1	PTX1    -0.1800
16	C16    -7.2910    -6.3820     0.1710	C.3	1	PTX1    -0.1800
17	C17    -8.5800    -5.5670     0.3660	C.3	1	PTX1    -0.1800
18	C18    -9.8420    -6.4000     0.0890	C.3	1	PTX1    -0.1800
19	C19   -11.1230    -5.5710     0.2780	C.3	1	PTX1    -0.1800
20	C20   -12.3920    -6.3920    -0.0030	C.3	1	PTX1    -0.1800
21	C21   -13.6670    -5.5540     0.1820	C.3	1	PTX1    -0.1800
22	C22   -14.9410    -6.3670    -0.1010	C.3	1	PTX1    -0.1800
23	C23   -16.2120    -5.5230     0.0830	C.3	1	PTX1    -0.1800
24	C24   -17.4880    -6.3320    -0.2000	C.3	1	PTX1    -0.1790
25	C25   -18.7580    -5.4850    -0.0170	C.3	1	PTX1    -0.1810
26	C26   -20.0350    -6.2930    -0.3010	C.3	1	PTX1    -0.1770
27	C27   -21.3000    -5.4430    -0.1170	C.3	1	PTX1    -0.2730
28	C28     5.9960    -3.1520     1.2060	C.3	1	PTX1    -0.2740
29	C29     6.1000    -3.6430    -1.2690	C.3	1	PTX1    -0.2740
30	C30     9.1230    -4.5320    -0.8790	C.2	1	PTX1    -0.1080
31	C31    10.3490    -3.9960    -0.9740	C.2	1	PTX1    -0.1180
32	O1    14.3410    -1.0490    -0.2750	O.2	1	PTX1    -0.3950
33	O2    12.1290    -1.4070    -0.0750	O.3	1	PTX1    -0.1340
34	O3     7.1750    -5.0820     0.3630	O.3	1	PTX1    -0.4260
35	O4     5.0020    -5.1740     0.2260	O.3	1	PTX1    -0.4030
36	O5     1.4130    -5.1530     0.4860	O.3	1	PTX1    -0.3420
37	H1    12.8540    -3.1580    -0.9030	H	1	PTX1     0.0900
38	H2    12.9190    -3.0480     0.9040	H	1	PTX1     0.0900
39	H3    10.7680    -3.1020     2.1820	H	1	PTX1     0.1150
40	H4     8.5740    -4.0950     2.3370	H	1	PTX1     0.1150
41	H5     3.6740    -4.2910     1.5410	H	1	PTX1     0.0900
42	H6     3.5200    -3.7910    -0.2080	H	1	PTX1     0.0900
43	H7     2.7400    -6.1030    -0.7790	H	1	PTX1     0.0900
44	H8     2.8410    -6.5630     0.9790	H	1	PTX1     0.0900
45	H9     0.4000    -6.4420    -0.7670	H	1	PTX1     0.0900
46	H10     0.4580    -6.9130     0.9900	H	1	PTX1     0.0900
47	H11    -0.9850    -4.9360     1.5590	H	1	PTX1     0.0900
48	H12    -1.0140    -4.4440    -0.1700	H	1	PTX1     0.0900
49	H13    -2.1550    -6.6200    -0.7680	H	1	PTX1     0.0900
50	H14    -2.1450    -7.1000     0.9660	H	1	PTX1     0.0900
51	H15    -3.5290    -5.0680     1.5390	H	1	PTX1     0.0900
52	H16    -3.5230    -4.5730    -0.1900	H	1	PTX1     0.0900
53	H17    -4.7040    -6.7190    -0.8080	H	1	PTX1     0.0900
54	H18    -4.7250    -7.2050     0.9240	H	1	PTX1     0.0900
55	H19    -6.0730    -5.1450     1.4860	H	1	PTX1     0.0900
56	H20    -6.0400    -4.6490    -0.2430	H	1	PTX1     0.0900
57	H21    -7.2550    -6.7730    -0.8740	H	1	PTX1     0.0900
58	H22    -7.2980    -7.2610     0.8580	H	1	PTX1     0.0900
59	H23    -8.6160    -5.1790     1.4110	H	1	PTX1     0.0900
60	H24    -8.5650    -4.6850    -0.3170	H	1	PTX1     0.0900
61	H25    -9.8060    -6.7910    -0.9560	H	1	PTX1     0.0900
62	H26    -9.8640    -7.2800     0.7750	H	1	PTX1     0.0900
63	H27   -11.1600    -5.1810     1.3230	H	1	PTX1     0.0900
64	H28   -11.0960    -4.6890    -0.4060	H	1	PTX1     0.0900
65	H29   -12.3560    -6.7840    -1.0480	H	1	PTX1     0.0900
66	H30   -12.4240    -7.2720     0.6830	H	1	PTX1     0.0900
67	H31   -13.7040    -5.1630     1.2270	H	1	PTX1     0.0900
68	H32   -13.6330    -4.6730    -0.5020	H	1	PTX1     0.0900
69	H33   -14.9050    -6.7590    -1.1450	H	1	PTX1     0.0900
70	H34   -14.9780    -7.2470     0.5850	H	1	PTX1     0.0900
71	H35   -16.2480    -5.1320     1.1280	H	1	PTX1     0.0900
72	H36   -16.1740    -4.6430    -0.6020	H	1	PTX1     0.0900
73	H37   -17.4530    -6.7240    -1.2450	H	1	PTX1     0.0900
74	H38   -17.5280    -7.2120     0.4850	H	1	PTX1     0.0900
75	H39   -18.7940    -5.0930     1.0270	H	1	PTX1     0.0900
76	H40   -18.7190    -4.6060    -0.7030	H	1	PTX1     0.0900
77	H41   -20.0050    -6.6850    -1.3450	H	1	PTX1     0.0900
78	H42   -20.0810    -7.1730     0.3850	H	1	PTX1     0.0900
79	H43   -22.2170    -6.0410    -0.3260	H	1	PTX1     0.0900
80	H44   -21.3770    -5.0580     0.9250	H	1	PTX1     0.0900
81	H45   -21.3010    -4.5690    -0.8080	H	1	PTX1     0.0900
82	H46     5.1220    -2.4770     1.0760	H	1	PTX1     0.0900
83	H47     6.8790    -2.4770     1.1580	H	1	PTX1     0.0900
84	H48     5.9560    -3.5870     2.2310	H	1	PTX1     0.0900
85	H49     6.1840    -4.4370    -2.0460	H	1	PTX1     0.0900
86	H50     5.1840    -3.0550    -1.4970	H	1	PTX1     0.0900
87	H51     6.9510    -2.9380    -1.3980	H	1	PTX1     0.0900
88	H52     8.6760    -4.9920    -1.7770	H	1	PTX1     0.1150
89	H53    10.8680    -4.0040    -1.9470	H	1	PTX1     0.1150
90	C32     3.6840    11.7350     0.6280	C.2	1	PTX1     0.3740
91	C33     2.4130    12.1670     0.8850	C.2	1	PTX1    -0.0370
92	C34     2.8400    13.0660     3.1240	C.3	1	PTX1     0.0120
93	C35     1.5030    12.1710    -0.1150	C.2	1	PTX1    -0.0370
94	C36    -0.1120    13.8680    -0.1730	C.3	1	PTX1     0.0120
95	C37     1.7980    11.6770    -1.3510	C.2	1	PTX1     0.3430
96	C38     3.0580    11.2240    -1.5870	C.2	1	PTX1     0.0720
97	C39     3.3280    10.6670    -2.9760	C.3	1	PTX1    -0.2410
98	C40     3.9950    11.2780    -0.6190	C.2	1	PTX1    -0.0450
99	C41     5.4250    10.8120    -0.8720	C.3	1	PTX1    -0.2740
100	C42     5.6010     9.3310    -0.4980	C.3	1	PTX1    -0.1670
101	C43     7.0360     8.8370    -0.7430	C.3	1	PTX1    -0.1220
102	C44     7.1860     7.3430    -0.4100	C.3	1	PTX1    -0.1800
103	C45     8.6230     6.8400    -0.6180	C.3	1	PTX1    -0.1800
104	C46     8.7410     5.3340    -0.3330	C.3	1	PTX1    -0.1800
105	C47    10.1790     4.8140    -0.5010	C.3	1	PTX1    -0.1800
106	C48    10.2560     3.2970    -0.2670	C.3	1	PTX1    -0.1890
107	C49    11.6880     2.7500    -0.3930	C.3	1	PTX1    -0.1620
108	C50    11.7110     1.2320    -0.2130	C.3	1	PTX1     0.1370
109	O6     4.5420    11.7310     1.4880	O.2	1	PTX1    -0.2470
110	O7     1.9690    12.6620     2.0960	O.3	1	PTX1    -0.3730
111	O8     0.1960    12.5280     0.1400	O.3	1	PTX1    -0.3730
112	O9     0.9530    11.6520    -2.2270	O.2	1	PTX1    -0.2470
113	O10    13.0330     0.7670    -0.2970	O.3	1	PTX1    -0.2450
114	H54     2.2300    13.6000     3.8860	H	1	PTX1     0.0900
115	H55     3.2870    12.1840     3.6320	H	1	PTX1     0.0900
116	H56     3.5970    13.7840     2.7360	H	1	PTX1     0.0900
117	H57    -1.1800    14.0460     0.0810	H	1	PTX1     0.0900
118	H58     0.5250    14.5560     0.4270	H	1	PTX1     0.0900
119	H59     0.0400    14.0570    -1.2590	H	1	PTX1     0.0900
120	H60     3.3460    11.4920    -3.7250	H	1	PTX1     0.0900
121	H61     4.2700    10.0950    -3.0860	H	1	PTX1     0.0900
122	H62     2.5430     9.9340    -3.2710	H	1	PTX1     0.0900
123	H63     5.7300    10.9850    -1.9260	H	1	PTX1     0.0900
124	H64     6.1620    11.4390    -0.3210	H	1	PTX1     0.0900
125	H65     5.3400     9.1840     0.5770	H	1	PTX1     0.0900
126	H66     4.8900     8.7120    -1.0950	H	1	PTX1     0.0900
127	H67     7.3090     9.0050    -1.8110	H	1	PTX1     0.0900
128	H68     7.7430     9.4310    -0.1170	H	1	PTX1     0.0900
129	H69     6.8850     7.1680     0.6510	H	1	PTX1     0.0900
130	H70     6.4910     6.7540    -1.0540	H	1	PTX1     0.0900
131	H71     8.9410     7.0430    -1.6680	H	1	PTX1     0.0900
132	H72     9.3140     7.4020     0.0550	H	1	PTX1     0.0900
133	H73     8.3960     5.1270     0.7080	H	1	PTX1     0.0900
134	H74     8.0650     4.7780    -1.0250	H	1	PTX1     0.0900
135	H75    10.5420     5.0490    -1.5300	H	1	PTX1     0.0900
136	H76    10.8500     5.3390     0.2200	H	1	PTX1     0.0900
137	H77     9.8620     3.0600     0.7500	H	1	PTX1     0.0900
138	H78     9.5980     2.7810    -1.0060	H	1	PTX1     0.0900
139	H79    12.1020     3.0110    -1.3960	H	1	PTX1     0.0900
140	H80    12.3400     3.2300     0.3750	H	1	PTX1     0.0900
141	H81    11.2960     0.9640     0.7860	H	1	PTX1     0.0900
142	H82    11.1000     0.7550    -1.0150	H	1	PTX1     0.0900
@<TRIPOS>BOND
1	1	32	2
2	1	33	1
3	2	3	1
4	2	37	1
5	2	38	1
6	3	4	1
7	3	31	2
8	4	5	2
9	4	39	1
10	5	6	1
11	5	40	1
12	6	30	2
13	6	34	1
14	7	28	1
15	7	29	1
16	7	35	1
17	8	9	1
18	8	41	1
19	8	42	1
20	9	36	1
21	9	43	1
22	9	44	1
23	10	11	1
24	10	45	1
25	10	46	1
26	11	12	1
27	11	47	1
28	11	48	1
29	12	13	1
30	12	49	1
31	12	50	1
32	13	14	1
33	13	51	1
34	13	52	1
35	14	15	1
36	14	53	1
37	14	54	1
38	15	16	1
39	15	55	1
40	15	56	1
41	16	17	1
42	16	57	1
43	16	58	1
44	17	18	1
45	17	59	1
46	17	60	1
47	18	19	1
48	18	61	1
49	18	62	1
50	19	20	1
51	19	63	1
52	19	64	1
53	20	21	1
54	20	65	1
55	20	66	1
56	21	22	1
57	21	67	1
58	21	68	1
59	22	23	1
60	22	69	1
61	22	70	1
62	23	24	1
63	23	71	1
64	23	72	1
65	24	25	1
66	24	73	1
67	24	74	1
68	25	26	1
69	25	75	1
70	25	76	1
71	26	27	1
72	26	77	1
73	26	78	1
74	27	79	1
75	27	80	1
76	27	81	1
77	28	82	1
78	28	83	1
79	28	84	1
80	29	85	1
81	29	86	1
82	29	87	1
83	30	31	1
84	30	88	1
85	31	89	1
86	2	33	1
87	7	34	1
88	8	35	1
89	10	36	1
90	90	91	1
91	90	98	1
92	91	93	2
93	91	110	1
94	92	114	1
95	92	115	1
96	92	116	1
97	93	95	1
98	93	111	1
99	94	117	1
100	94	118	1
101	94	119	1
102	95	96	1
103	95	112	2
104	96	97	1
105	96	98	2
106	97	120	1
107	97	121	1
108	97	122	1
109	98	99	1
110	99	100	1
111	99	123	1
112	99	124	1
113	100	101	1
114	100	125	1
115	100	126	1
116	101	102	1
117	101	127	1
118	101	128	1
119	102	103	1
120	102	129	1
121	102	130	1
122	103	104	1
123	103	131	1
124	103	132	1
125	104	105	1
126	104	133	1
127	104	134	1
128	105	106	1
129	105	135	1
130	105	136	1
131	106	107	1
132	106	137	1
133	106	138	1
134	107	108	1
135	107	139	1
136	107	140	1
137	108	113	1
138	108	141	1
139	108	142	1
140	90	109	2
141	92	110	1
142	94	111	1
143	1	113	1
