@<TRIPOS>MOLECULE
CTX 
144 149 0 0 0
SMALL
USER_CHARGES
#CGenFF output mol2 file
@<TRIPOS>ATOM
1	C1     0.0430     3.1560     8.0090	C.3	1	CTX1    -0.2730
2	C2     0.8450     3.0270     6.7070	C.3	1	CTX1    -0.1770
3	C3    -0.0640     2.7430     5.5010	C.3	1	CTX1    -0.1810
4	C4     0.7360     2.6090     4.1950	C.3	1	CTX1    -0.1790
5	C5    -0.1760     2.3180     2.9930	C.3	1	CTX1    -0.1800
6	C6     0.6200     2.1680     1.6950	C.3	1	CTX1     0.0360
7	C7     0.2960     1.4520    -0.5650	C.3	1	CTX1     0.3910
8	C8    -0.8680     1.3700    -1.5530	C.3	1	CTX1    -0.2690
9	C9     1.3670     2.4150    -1.0660	C.3	1	CTX1    -0.2690
10	O1    -0.2820     1.8890     0.6510	O.3	1	CTX1    -0.4020
11	H1     0.7140     3.3610     8.8740	H	1	CTX1     0.0900
12	H2    -0.6930     3.9900     7.9460	H	1	CTX1     0.0900
13	H3    -0.5180     2.2190     8.2300	H	1	CTX1     0.0900
14	H4     1.5910     2.2030     6.8160	H	1	CTX1     0.0900
15	H5     1.4160     3.9710     6.5320	H	1	CTX1     0.0900
16	H6    -0.8070     3.5690     5.3970	H	1	CTX1     0.0900
17	H7    -0.6340     1.8010     5.6840	H	1	CTX1     0.0900
18	H8     1.4810     1.7850     4.3020	H	1	CTX1     0.0900
19	H9     1.3040     3.5510     4.0090	H	1	CTX1     0.0900
20	H10    -0.9190     3.1440     2.8790	H	1	CTX1     0.0900
21	H11    -0.7480     1.3780     3.1830	H	1	CTX1     0.0900
22	H12     1.3550     1.3400     1.8110	H	1	CTX1     0.0900
23	H13     1.1570     3.1190     1.4800	H	1	CTX1     0.0900
24	H14    -0.5600     1.0800    -2.5810	H	1	CTX1     0.0900
25	H15    -1.3650     2.3620    -1.6490	H	1	CTX1     0.0900
26	H16    -1.6440     0.6490    -1.2120	H	1	CTX1     0.0900
27	H17     0.9770     3.4570    -1.1000	H	1	CTX1     0.0900
28	H18     2.2810     2.4110    -0.4330	H	1	CTX1     0.0900
29	H19     1.6960     2.1650    -2.0990	H	1	CTX1     0.0900
30	N     0.9180    -2.8330    -2.3620	N.pl3	1	CTX1    -0.5470
31	C10     1.2430    -0.6390    -1.3160	C.3	1	CTX1     0.1830
32	C11     2.7160    -1.0310    -1.1240	C.2	1	CTX1     0.8500
33	C12     4.8800     0.0870    -0.9280	C.3	1	CTX1     0.2720
34	C13     5.3130     0.6630     0.4340	C.3	1	CTX1    -0.2120
35	C14     6.6580     0.0670     0.9020	C.3	1	CTX1     0.1860
36	C15     7.7850     0.6660     0.0190	C.3	1	CTX1     0.1330
37	C16     7.5750     3.0150    -0.6680	C.2	1	CTX1     0.4590
38	C17     7.7340     4.3370    -0.3480	C.2	1	CTX1     0.0860
39	C18     7.4870     5.3210    -1.2350	C.2	1	CTX1    -0.1100
40	C19     7.6530     6.6100    -0.8990	C.2	1	CTX1    -0.1140
41	C20     8.0700     6.9400     0.3320	C.2	1	CTX1    -0.1150
42	C21     8.3180     5.9710     1.2250	C.2	1	CTX1    -0.1140
43	C22     8.1500     4.6840     0.8860	C.2	1	CTX1    -0.1100
44	C23     9.1950     0.0310     0.1250	C.3	1	CTX1    -0.0740
45	C24     9.6180    -0.9290    -1.0500	C.3	1	CTX1     0.0880
46	C25     9.1110    -0.5040    -2.4480	C.3	1	CTX1    -0.2630
47	C26     9.0190    -2.3420    -0.7540	C.2	1	CTX1     0.3060
48	C27     7.5700    -2.7890    -1.0800	C.3	1	CTX1     0.3620
49	C28     8.2890    -4.2560    -2.8050	C.3	1	CTX1    -0.0880
50	C29     6.4990    -1.8070    -0.6130	C.2	1	CTX1    -0.1130
51	C30     5.6260    -1.1510    -1.4180	C.2	1	CTX1    -0.1530
52	C31     5.3970    -1.4170    -2.8940	C.3	1	CTX1    -0.2650
53	C32     6.4760    -1.4760     0.8840	C.3	1	CTX1     0.0160
54	C33     5.1020    -1.9490     1.4590	C.3	1	CTX1    -0.2690
55	C34     7.4020    -2.2880     1.8360	C.3	1	CTX1    -0.2690
56	C35    11.1750    -1.0710    -1.1680	C.3	1	CTX1     0.1180
57	C36    13.0370    -0.3550    -2.4720	C.3	1	CTX1    -0.1010
58	C37    11.8840    -0.8940     0.1770	C.3	1	CTX1    -0.2120
59	C38    11.6770     0.4670     0.8190	C.3	1	CTX1     0.0200
60	C39    10.8370     2.0610    -0.1080	C.3	1	CTX1    -0.1060
61	C40    10.2320     0.9670     0.7750	C.3	1	CTX1     0.3660
62	C41    10.3850     2.2600     2.8610	C.2	1	CTX1     0.8850
63	C42     9.5650     2.3930     4.1320	C.3	1	CTX1    -0.3130
64	C43     0.3080    -1.8600    -1.4510	C.3	1	CTX1     0.1360
65	C44     0.8720    -2.7140    -3.7230	C.2	1	CTX1     0.6380
66	C45     1.6150    -3.8090    -4.4970	C.3	1	CTX1    -0.0540
67	C46     2.4210    -3.1470    -5.6330	C.3	1	CTX1    -0.2730
68	C47     2.5830    -4.6170    -3.6100	C.3	1	CTX1    -0.2730
69	C48     0.5530    -4.7550    -5.0890	C.3	1	CTX1    -0.2730
70	C49     0.0070    -2.5290    -0.1150	C.2	1	CTX1    -0.0400
71	C50     0.6930    -3.5920     0.3460	C.2	1	CTX1    -0.1060
72	C51     0.4060    -4.1500     1.5330	C.2	1	CTX1    -0.1150
73	C52    -0.5850    -3.6580     2.2890	C.2	1	CTX1    -0.1150
74	C53    -1.2880    -2.6060     1.8450	C.2	1	CTX1    -0.1150
75	C54    -0.9920    -2.0580     0.6570	C.2	1	CTX1    -0.1060
76	O2     0.8190     0.1820    -0.2500	O.3	1	CTX1    -0.5060
77	O3     3.1120    -2.1730    -1.0740	O.co2	1	CTX1    -0.6230
78	O4     3.4760     0.0980    -1.0560	O.3	1	CTX1    -0.4320
79	O5     6.9020     0.4990     2.2130	O.3	1	CTX1    -0.4600
80	O6     7.8520     2.0470     0.2720	O.3	1	CTX1    -0.3100
81	O7     7.1990     2.6950    -1.7790	O.co2	1	CTX1    -0.4960
82	O8     9.7090    -3.1840    -0.2150	O.2	1	CTX1    -0.5150
83	O9     7.4630    -3.1710    -2.4430	O.3	1	CTX1    -0.3770
84	O10    11.6730    -0.1910    -2.1470	O.3	1	CTX1    -0.3670
85	O11    12.1470     1.5430     0.0400	O.3	1	CTX1    -0.3430
86	O12     9.7850     1.3540     2.0420	O.3	1	CTX1    -0.4220
87	O13    11.4010     2.8790     2.6490	O.co2	1	CTX1    -0.6170
88	O14     0.2810    -1.8140    -4.2660	O.2	1	CTX1    -0.5110
89	H20     1.2460    -0.0820    -2.2790	H	1	CTX1     0.0900
90	H21     5.2200     0.8590    -1.6670	H	1	CTX1     0.0900
91	H22     5.3500     1.7750     0.3860	H	1	CTX1     0.0900
92	H23     4.5310     0.5070     1.2090	H	1	CTX1     0.0900
93	H24     7.0670     1.4470     2.2000	H	1	CTX1     0.2920
94	H25     7.4610     0.5310    -1.0230	H	1	CTX1     0.0900
95	H26     7.1430     5.1140    -2.2620	H	1	CTX1     0.1150
96	H27     7.4470     7.4050    -1.6360	H	1	CTX1     0.1150
97	H28     8.2070     7.9990     0.6080	H	1	CTX1     0.1150
98	H29     8.6600     6.2350     2.2400	H	1	CTX1     0.1150
99	H30     8.3660     3.9300     1.6600	H	1	CTX1     0.1150
100	H31     9.1310    -0.6540     0.9940	H	1	CTX1     0.0900
101	H32     9.3660     0.5540    -2.6800	H	1	CTX1     0.0900
102	H33     9.5300    -1.1550    -3.2490	H	1	CTX1     0.0900
103	H34     8.0190    -0.5850    -2.5840	H	1	CTX1     0.0900
104	H35     7.3420    -3.7110    -0.4920	H	1	CTX1     0.0900
105	H36     8.0520    -4.5240    -3.8590	H	1	CTX1     0.0900
106	H37     9.3610    -3.9660    -2.7550	H	1	CTX1     0.0900
107	H38     8.0840    -5.1380    -2.1600	H	1	CTX1     0.0900
108	H39     6.1820    -0.9640    -3.5350	H	1	CTX1     0.0900
109	H40     5.2930    -2.4990    -3.1200	H	1	CTX1     0.0900
110	H41     4.4350    -0.9810    -3.2450	H	1	CTX1     0.0900
111	H42     4.9860    -1.6730     2.5310	H	1	CTX1     0.0900
112	H43     4.2000    -1.5550     0.9590	H	1	CTX1     0.0900
113	H44     4.9800    -3.0530     1.3770	H	1	CTX1     0.0900
114	H45     7.2800    -1.9620     2.8940	H	1	CTX1     0.0900
115	H46     7.1720    -3.3770     1.8180	H	1	CTX1     0.0900
116	H47     8.4880    -2.2550     1.6700	H	1	CTX1     0.0900
117	H48    11.4030    -2.0910    -1.5650	H	1	CTX1     0.0900
118	H49    13.2480     0.2760    -3.3640	H	1	CTX1     0.0900
119	H50    13.6920     0.0000    -1.6500	H	1	CTX1     0.0900
120	H51    13.2580    -1.4140    -2.7300	H	1	CTX1     0.0900
121	H52    11.4950    -1.6530     0.8960	H	1	CTX1     0.0900
122	H53    12.9730    -1.1140     0.1040	H	1	CTX1     0.0900
123	H54    12.1550     0.5110     1.8240	H	1	CTX1     0.0900
124	H55    10.7710     3.1030     0.2630	H	1	CTX1     0.0900
125	H56    10.5200     2.0020    -1.1700	H	1	CTX1     0.0900
126	H57     8.5180     2.6900     3.8930	H	1	CTX1     0.0900
127	H58     9.5490     1.4250     4.6830	H	1	CTX1     0.0900
128	H59     9.9970     3.1680     4.8030	H	1	CTX1     0.0900
129	H60    -0.6720    -1.5380    -1.8780	H	1	CTX1     0.0900
130	H61     1.5610    -3.5020    -1.9410	H	1	CTX1     0.2840
131	H62     2.9880    -3.9060    -6.2190	H	1	CTX1     0.0900
132	H63     1.7690    -2.6050    -6.3530	H	1	CTX1     0.0900
133	H64     3.1590    -2.4180    -5.2250	H	1	CTX1     0.0900
134	H65     3.1380    -5.3740    -4.2100	H	1	CTX1     0.0900
135	H66     2.0510    -5.1770    -2.8090	H	1	CTX1     0.0900
136	H67     3.3440    -3.9600    -3.1320	H	1	CTX1     0.0900
137	H68    -0.1480    -4.2140    -5.7640	H	1	CTX1     0.0900
138	H69     1.0270    -5.5690    -5.6830	H	1	CTX1     0.0900
139	H70    -0.0530    -5.2320    -4.2860	H	1	CTX1     0.0900
140	H71     1.5140    -4.0440    -0.2300	H	1	CTX1     0.1150
141	H72     0.9850    -5.0190     1.8900	H	1	CTX1     0.1150
142	H73    -0.8220    -4.1140     3.2640	H	1	CTX1     0.1150
143	H74    -2.1080    -2.1940     2.4570	H	1	CTX1     0.1150
144	H75    -1.5910    -1.1950     0.3200	H	1	CTX1     0.1150
@<TRIPOS>BOND
1	1	2	1
2	1	11	1
3	1	12	1
4	1	13	1
5	2	3	1
6	2	14	1
7	2	15	1
8	3	4	1
9	3	16	1
10	3	17	1
11	4	5	1
12	4	18	1
13	4	19	1
14	5	6	1
15	5	20	1
16	5	21	1
17	6	10	1
18	6	22	1
19	6	23	1
20	7	8	1
21	7	9	1
22	7	76	1
23	8	24	1
24	8	25	1
25	8	26	1
26	9	27	1
27	9	28	1
28	9	29	1
29	7	10	1
30	30	65	1
31	30	130	1
32	31	32	1
33	31	64	1
34	31	89	1
35	32	77	2
36	32	78	1
37	33	34	1
38	33	51	1
39	33	90	1
40	34	35	1
41	34	91	1
42	34	92	1
43	35	36	1
44	35	53	1
45	35	79	1
46	36	44	1
47	36	80	1
48	36	94	1
49	37	38	1
50	37	81	2
51	38	39	1
52	38	43	2
53	39	40	2
54	39	95	1
55	40	41	1
56	40	96	1
57	41	42	2
58	41	97	1
59	42	43	1
60	42	98	1
61	43	99	1
62	44	45	1
63	44	61	1
64	44	100	1
65	45	46	1
66	45	47	1
67	45	56	1
68	46	101	1
69	46	102	1
70	46	103	1
71	47	48	1
72	47	82	2
73	48	50	1
74	48	83	1
75	48	104	1
76	49	105	1
77	49	106	1
78	49	107	1
79	50	51	2
80	50	53	1
81	51	52	1
82	52	108	1
83	52	109	1
84	52	110	1
85	53	54	1
86	53	55	1
87	54	111	1
88	54	112	1
89	54	113	1
90	55	114	1
91	55	115	1
92	55	116	1
93	56	58	1
94	56	84	1
95	56	117	1
96	57	118	1
97	57	119	1
98	57	120	1
99	58	59	1
100	58	121	1
101	58	122	1
102	59	61	1
103	59	85	1
104	59	123	1
105	60	61	1
106	60	124	1
107	60	125	1
108	61	86	1
109	62	63	1
110	62	87	2
111	63	126	1
112	63	127	1
113	63	128	1
114	30	64	1
115	64	70	1
116	64	129	1
117	65	66	1
118	65	88	2
119	66	67	1
120	66	68	1
121	66	69	1
122	67	131	1
123	67	132	1
124	67	133	1
125	68	134	1
126	68	135	1
127	68	136	1
128	69	137	1
129	69	138	1
130	69	139	1
131	70	71	1
132	70	75	2
133	71	72	2
134	71	140	1
135	72	73	1
136	72	141	1
137	73	74	2
138	73	142	1
139	74	75	1
140	74	143	1
141	75	144	1
142	31	76	1
143	33	78	1
144	79	93	1
145	37	80	1
146	49	83	1
147	57	84	1
148	60	85	1
149	62	86	1
