@<TRIPOS>MOLECULE
LST 
117 120 0 0 0
SMALL
USER_CHARGES
#CGenFF output mol2 file
@<TRIPOS>ATOM
1	C1    -1.1180     1.6750     2.2500	C.3	1	LST1     0.3810
2	C2    -2.5220     1.9140     2.7870	C.3	1	LST1    -0.2690
3	C3    -0.8900     2.5410     1.0170	C.3	1	LST1    -0.2690
4	C4    -1.9350     0.0520     0.9210	C.3	1	LST1     0.0360
5	C5    -1.8320    -1.4080     0.4990	C.3	1	LST1    -0.1800
6	C6    -2.8770    -1.7030    -0.5690	C.3	1	LST1    -0.1800
7	C7    -2.7740    -3.1630    -0.9910	C.3	1	LST1    -0.1800
8	C8    -3.8190    -3.4580    -2.0590	C.3	1	LST1    -0.1800
9	C9    -3.7160    -4.9180    -2.4810	C.3	1	LST1    -0.1800
10	C10    -4.7610    -5.2130    -3.5490	C.3	1	LST1    -0.1800
11	C11    -4.6580    -6.6730    -3.9710	C.3	1	LST1    -0.1800
12	C12    -5.7030    -6.9680    -5.0390	C.3	1	LST1    -0.1800
13	C13    -5.6000    -8.4280    -5.4610	C.3	1	LST1    -0.1800
14	C14    -6.6450    -8.7230    -6.5290	C.3	1	LST1    -0.1800
15	C15    -6.5420   -10.1830    -6.9510	C.3	1	LST1    -0.1800
16	C16    -7.5870   -10.4780    -8.0190	C.3	1	LST1    -0.1800
17	C17    -7.4840   -11.9380    -8.4410	C.3	1	LST1    -0.1800
18	C18    -8.5290   -12.2330    -9.5090	C.3	1	LST1    -0.1790
19	C19    -8.4260   -13.6930    -9.9310	C.3	1	LST1    -0.1810
20	C20    -9.4700   -13.9880   -10.9990	C.3	1	LST1    -0.1770
21	C21    -9.3680   -15.4480   -11.4210	C.3	1	LST1    -0.2730
22	O1    -0.9740     0.3240     1.9040	O.3	1	LST1    -0.4020
23	H1    -3.2690     1.6490     2.0060	H	1	LST1     0.0900
24	H2    -2.6370     2.9870     3.0600	H	1	LST1     0.0900
25	H3    -2.6880     1.2810     3.6880	H	1	LST1     0.0900
26	H4    -0.0340     3.2280     1.1990	H	1	LST1     0.0900
27	H5    -0.6640     1.8890     0.1440	H	1	LST1     0.0900
28	H6    -1.8060     3.1370     0.8090	H	1	LST1     0.0900
29	H7    -2.9510     0.2490     1.3320	H	1	LST1     0.0900
30	H8    -1.7580     0.7060     0.0380	H	1	LST1     0.0900
31	H9    -0.8170    -1.6040     0.0890	H	1	LST1     0.0900
32	H10    -2.0100    -2.0620     1.3820	H	1	LST1     0.0900
33	H11    -3.8930    -1.5070    -0.1580	H	1	LST1     0.0900
34	H12    -2.7000    -1.0490    -1.4520	H	1	LST1     0.0900
35	H13    -1.7590    -3.3590    -1.4010	H	1	LST1     0.0900
36	H14    -2.9520    -3.8170    -0.1080	H	1	LST1     0.0900
37	H15    -4.8350    -3.2620    -1.6480	H	1	LST1     0.0900
38	H16    -3.6420    -2.8040    -2.9420	H	1	LST1     0.0900
39	H17    -2.7010    -5.1140    -2.8910	H	1	LST1     0.0900
40	H18    -3.8940    -5.5720    -1.5980	H	1	LST1     0.0900
41	H19    -5.7770    -5.0170    -3.1380	H	1	LST1     0.0900
42	H20    -4.5840    -4.5590    -4.4320	H	1	LST1     0.0900
43	H21    -3.6430    -6.8690    -4.3810	H	1	LST1     0.0900
44	H22    -4.8350    -7.3270    -3.0880	H	1	LST1     0.0900
45	H23    -6.7190    -6.7720    -4.6280	H	1	LST1     0.0900
46	H24    -5.5260    -6.3140    -5.9220	H	1	LST1     0.0900
47	H25    -4.5840    -8.6240    -5.8720	H	1	LST1     0.0900
48	H26    -5.7770    -9.0820    -4.5780	H	1	LST1     0.0900
49	H27    -7.6600    -8.5270    -6.1190	H	1	LST1     0.0900
50	H28    -6.4680    -8.0690    -7.4120	H	1	LST1     0.0900
51	H29    -5.5260   -10.3790    -7.3620	H	1	LST1     0.0900
52	H30    -6.7190   -10.8370    -6.0680	H	1	LST1     0.0900
53	H31    -8.6020   -10.2820    -7.6090	H	1	LST1     0.0900
54	H32    -7.4100    -9.8240    -8.9020	H	1	LST1     0.0900
55	H33    -6.4680   -12.1340    -8.8520	H	1	LST1     0.0900
56	H34    -7.6610   -12.5920    -7.5580	H	1	LST1     0.0900
57	H35    -9.5440   -12.0370    -9.0990	H	1	LST1     0.0900
58	H36    -8.3510   -11.5790   -10.3920	H	1	LST1     0.0900
59	H37    -7.4100   -13.8890   -10.3420	H	1	LST1     0.0900
60	H38    -8.6030   -14.3470    -9.0480	H	1	LST1     0.0900
61	H39   -10.4860   -13.7920   -10.5890	H	1	LST1     0.0900
62	H40    -9.2930   -13.3340   -11.8820	H	1	LST1     0.0900
63	H41   -10.1310   -15.6640   -12.2020	H	1	LST1     0.0900
64	H42    -8.3520   -15.6450   -11.8320	H	1	LST1     0.0900
65	H43    -9.5450   -16.1030   -10.5380	H	1	LST1     0.0900
66	N1     2.2730     3.7500     6.1130	N.2	1	LST1    -0.8510
67	N2     0.7410     5.0270     5.1500	N.pl3	1	LST1    -0.1030
68	N3     0.7900    12.7060     3.5050	N.2	1	LST1    -0.6640
69	N4    -0.6250    12.6720     4.0030	N.pl3	1	LST1     0.4690
70	N5    -0.5070    11.7720     5.1980	N.2	1	LST1    -0.2940
71	N6     0.7650    11.3730     5.3410	N.2	1	LST1    -0.5200
72	C22     1.7560     4.9560     6.0620	C.2	1	LST1     0.4110
73	C23     1.5650     3.0140     5.1990	C.2	1	LST1     0.3870
74	C24     0.6070     3.7870     4.5880	C.2	1	LST1    -0.2920
75	C25    -0.3710     3.3650     3.5360	C.3	1	LST1     0.2350
76	C26    -0.0610     6.2170     4.8320	C.3	1	LST1     0.1050
77	C27     2.5470     9.5060     3.9590	C.2	1	LST1    -0.0000
78	C28     3.0810     8.2610     4.2920	C.2	1	LST1    -0.1070
79	C29     2.2330     7.1910     4.5760	C.2	1	LST1    -0.1170
80	C30     0.8500     7.3650     4.5270	C.2	1	LST1    -0.0040
81	C31     0.3150     8.6100     4.1950	C.2	1	LST1    -0.1170
82	C32     1.1640     9.6800     3.9110	C.2	1	LST1    -0.1070
83	C33     3.3600    10.5320     3.6870	C.2	1	LST1     0.0050
84	C34     2.8810    11.7630     4.1350	C.2	1	LST1     0.0650
85	C35     3.7730    12.7980     4.4160	C.2	1	LST1    -0.1190
86	C36     5.1430    12.6010     4.2490	C.2	1	LST1    -0.1170
87	C37     5.6220    11.3700     3.8020	C.2	1	LST1    -0.1150
88	C38     4.7310    10.3350     3.5210	C.2	1	LST1    -0.1220
89	C39     1.5670    11.9510     4.2950	C.2	1	LST1     0.6570
90	C40     2.2200     6.1080     6.8970	C.3	1	LST1    -0.1050
91	C41     3.3650     5.6570     7.7940	C.3	1	LST1    -0.1840
92	C42     3.8370     6.8290     8.6440	C.3	1	LST1    -0.1730
93	C43     4.9820     6.3780     9.5420	C.3	1	LST1    -0.2730
94	O2    -0.1780     2.0090     3.2350	O.3	1	LST1    -0.4240
95	Cl     1.8380     1.3500     4.8620	Cl	1	LST1    -0.1580
96	H44    -0.2140     3.9740     2.6180	H	1	LST1     0.0900
97	H45    -1.4080     3.5170     3.9110	H	1	LST1     0.0900
98	H46    -0.7030     6.4750     5.7030	H	1	LST1     0.0900
99	H47    -0.7010     6.0070     3.9460	H	1	LST1     0.0900
100	H48     4.1720     8.1240     4.3300	H	1	LST1     0.1150
101	H49     2.6550     6.2090     4.8380	H	1	LST1     0.1150
102	H50    -0.7750     8.7480     4.1560	H	1	LST1     0.1150
103	H51     0.7420    10.6620     3.6490	H	1	LST1     0.1150
104	H52     3.3950    13.7690     4.7690	H	1	LST1     0.1150
105	H53     5.8470    13.4180     4.4710	H	1	LST1     0.1150
106	H54     6.7040    11.2160     3.6710	H	1	LST1     0.1150
107	H55     5.1080     9.3650     3.1680	H	1	LST1     0.1150
108	H56    -1.4510    13.1370     3.6270	H	1	LST1     0.2950
109	H57     1.3770     6.4720     7.5270	H	1	LST1     0.0900
110	H58     2.5700     6.9300     6.2340	H	1	LST1     0.0900
111	H59     4.2070     5.2930     7.1650	H	1	LST1     0.0900
112	H60     3.0140     4.8350     8.4580	H	1	LST1     0.0900
113	H61     2.9940     7.1930     9.2740	H	1	LST1     0.0900
114	H62     4.1870     7.6510     7.9810	H	1	LST1     0.0900
115	H63     5.3270     7.2350    10.1630	H	1	LST1     0.0900
116	H64     5.8240     6.0140     8.9120	H	1	LST1     0.0900
117	H65     4.6310     5.5560    10.2050	H	1	LST1     0.0900
@<TRIPOS>BOND
1	1	2	1
2	1	3	1
3	1	22	1
4	2	23	1
5	2	24	1
6	2	25	1
7	3	26	1
8	3	27	1
9	3	28	1
10	4	5	1
11	4	29	1
12	4	30	1
13	5	6	1
14	5	31	1
15	5	32	1
16	6	7	1
17	6	33	1
18	6	34	1
19	7	8	1
20	7	35	1
21	7	36	1
22	8	9	1
23	8	37	1
24	8	38	1
25	9	10	1
26	9	39	1
27	9	40	1
28	10	11	1
29	10	41	1
30	10	42	1
31	11	12	1
32	11	43	1
33	11	44	1
34	12	13	1
35	12	45	1
36	12	46	1
37	13	14	1
38	13	47	1
39	13	48	1
40	14	15	1
41	14	49	1
42	14	50	1
43	15	16	1
44	15	51	1
45	15	52	1
46	16	17	1
47	16	53	1
48	16	54	1
49	17	18	1
50	17	55	1
51	17	56	1
52	18	19	1
53	18	57	1
54	18	58	1
55	19	20	1
56	19	59	1
57	19	60	1
58	20	21	1
59	20	61	1
60	20	62	1
61	21	63	1
62	21	64	1
63	21	65	1
64	4	22	1
65	66	73	1
66	67	76	1
67	68	69	1
68	68	89	2
69	69	70	1
70	69	108	1
71	70	71	2
72	71	89	1
73	66	72	2
74	67	72	1
75	72	90	1
76	73	74	2
77	73	95	1
78	67	74	1
79	74	75	1
80	75	94	1
81	75	96	1
82	75	97	1
83	76	80	1
84	76	98	1
85	76	99	1
86	77	78	1
87	77	82	2
88	77	83	1
89	78	79	2
90	78	100	1
91	79	80	1
92	79	101	1
93	80	81	2
94	81	82	1
95	81	102	1
96	82	103	1
97	83	84	1
98	83	88	2
99	84	85	2
100	84	89	1
101	85	86	1
102	85	104	1
103	86	87	2
104	86	105	1
105	87	88	1
106	87	106	1
107	88	107	1
108	90	91	1
109	90	109	1
110	90	110	1
111	91	92	1
112	91	111	1
113	91	112	1
114	92	93	1
115	92	113	1
116	92	114	1
117	93	115	1
118	93	116	1
119	93	117	1
120	1	94	1
