@<TRIPOS>MOLECULE
PTX 
171 177 0 0 0
SMALL
USER_CHARGES
#CGenFF output mol2 file
@<TRIPOS>ATOM
1	C1    -9.0190   -12.0400    -3.4280	C.3	1	PTX1    -0.2730
2	C2    -7.8520   -11.1200    -3.8090	C.3	1	PTX1    -0.1770
3	C3    -8.1060    -9.6660    -3.3820	C.3	1	PTX1    -0.1810
4	C4    -6.9430    -8.7380    -3.7720	C.3	1	PTX1    -0.1790
5	C5    -7.2040    -7.2820    -3.3530	C.3	1	PTX1    -0.1800
6	C6    -6.0550    -6.3490    -3.7680	C.3	1	PTX1    -0.1800
7	C7    -6.3300    -4.8890    -3.3730	C.3	1	PTX1    -0.1800
8	C8    -5.2050    -3.9460    -3.8290	C.3	1	PTX1    -0.1800
9	C9    -5.5040    -2.4830    -3.4680	C.3	1	PTX1    -0.1800
10	C10    -4.3870    -1.5320    -3.9280	C.3	1	PTX1    -0.1800
11	C11    -4.7410    -0.0630    -3.6470	C.3	1	PTX1    -0.1800
12	C12    -3.6150     0.8940    -4.0680	C.3	1	PTX1    -0.1570
13	C13    -4.0340     2.3650    -3.9090	C.3	1	PTX1    -0.1860
14	C14    -2.8740     3.3350    -4.2010	C.3	1	PTX1    -0.2190
15	C15    -3.2660     4.8100    -4.0360	C.3	1	PTX1     0.1670
16	C16    -3.6700     5.4770    -5.3540	C.3	1	PTX1    -0.2680
17	C17    -1.0300     5.6280    -3.3680	C.3	1	PTX1     0.3900
18	C18    -0.4860     5.3030    -4.7600	C.3	1	PTX1    -0.2690
19	C19    -0.5560     7.0610    -3.0810	C.3	1	PTX1    -0.2690
20	O1    -2.4360     5.6400    -3.2580	O.3	1	PTX1    -0.4340
21	H1    -8.8210   -13.0900    -3.7440	H	1	PTX1     0.0900
22	H2    -9.1850   -12.0420    -2.3260	H	1	PTX1     0.0900
23	H3    -9.9650   -11.7120    -3.9170	H	1	PTX1     0.0900
24	H4    -7.6970   -11.1630    -4.9140	H	1	PTX1     0.0900
25	H5    -6.9170   -11.4930    -3.3270	H	1	PTX1     0.0900
26	H6    -8.2570    -9.6260    -2.2770	H	1	PTX1     0.0900
27	H7    -9.0460    -9.3010    -3.8600	H	1	PTX1     0.0900
28	H8    -6.7920    -8.7830    -4.8770	H	1	PTX1     0.0900
29	H9    -6.0030    -9.0990    -3.2910	H	1	PTX1     0.0900
30	H10    -7.3410    -7.2330    -2.2470	H	1	PTX1     0.0900
31	H11    -8.1530    -6.9300    -3.8230	H	1	PTX1     0.0900
32	H12    -5.9140    -6.4100    -4.8730	H	1	PTX1     0.0900
33	H13    -5.1060    -6.6900    -3.2900	H	1	PTX1     0.0900
34	H14    -6.4460    -4.8190    -2.2650	H	1	PTX1     0.0900
35	H15    -7.2930    -4.5590    -3.8300	H	1	PTX1     0.0900
36	H16    -5.0770    -4.0330    -4.9350	H	1	PTX1     0.0900
37	H17    -4.2450    -4.2600    -3.3590	H	1	PTX1     0.0900
38	H18    -5.6370    -2.3900    -2.3640	H	1	PTX1     0.0900
39	H19    -6.4650    -2.1780    -3.9460	H	1	PTX1     0.0900
40	H20    -4.2140    -1.6640    -5.0220	H	1	PTX1     0.0900
41	H21    -3.4360    -1.7920    -3.4080	H	1	PTX1     0.0900
42	H22    -4.9470     0.0680    -2.5580	H	1	PTX1     0.0900
43	H23    -5.6740     0.1990    -4.2000	H	1	PTX1     0.0900
44	H24    -3.3370     0.7070    -5.1330	H	1	PTX1     0.0900
45	H25    -2.7120     0.6870    -3.4460	H	1	PTX1     0.0900
46	H26    -4.4050     2.5190    -2.8680	H	1	PTX1     0.0900
47	H27    -4.8860     2.5850    -4.5960	H	1	PTX1     0.0900
48	H28    -2.5420     3.1460    -5.2480	H	1	PTX1     0.0900
49	H29    -2.0230     3.0530    -3.5480	H	1	PTX1     0.0900
50	H30    -4.2160     4.8090    -3.4380	H	1	PTX1     0.0900
51	H31    -3.9430     6.5470    -5.2050	H	1	PTX1     0.0900
52	H32    -4.5550     4.9670    -5.8000	H	1	PTX1     0.0900
53	H33    -2.8680     5.4360    -6.1220	H	1	PTX1     0.0900
54	H34     0.6260     5.3850    -4.7640	H	1	PTX1     0.0900
55	H35    -0.8480     6.0130    -5.5350	H	1	PTX1     0.0900
56	H36    -0.6860     4.2680    -5.0990	H	1	PTX1     0.0900
57	H37    -0.9420     7.4780    -2.1260	H	1	PTX1     0.0900
58	H38     0.5540     7.1520    -3.0880	H	1	PTX1     0.0900
59	H39    -0.9310     7.7580    -3.8650	H	1	PTX1     0.0900
60	N     6.9990    -3.1890     4.0190	N.pl3	1	PTX1    -0.4050
61	C20    -0.1910     5.0050    -1.1480	C.3	1	PTX1     0.1750
62	C21    -1.4240     5.3240    -0.3000	C.3	1	PTX1    -0.2120
63	C22    -2.2970     4.1330     0.0470	C.3	1	PTX1     0.0200
64	C23    -2.1470     2.2860    -0.7750	C.3	1	PTX1    -0.1060
65	C24    -1.5390     2.8830     0.4930	C.3	1	PTX1     0.3660
66	C25    -3.3050     2.0620     1.9890	C.2	1	PTX1     0.8850
67	C26    -3.3900     1.5730     3.4240	C.3	1	PTX1    -0.3130
68	C27    -0.0050     2.9830     0.5300	C.3	1	PTX1    -0.0740
69	C28     0.6840     1.6300     0.8590	C.3	1	PTX1     0.1330
70	C29    -0.1760    -0.4130    -0.1960	C.2	1	PTX1     0.4590
71	C30    -1.1890    -1.3270    -0.3080	C.2	1	PTX1     0.0860
72	C31    -1.1680    -2.3050    -1.2350	C.2	1	PTX1    -0.1100
73	C32    -2.1710    -3.1930    -1.3250	C.2	1	PTX1    -0.1140
74	C33    -3.2210    -3.1150    -0.4950	C.2	1	PTX1    -0.1150
75	C34    -3.2550    -2.1480     0.4320	C.2	1	PTX1    -0.1140
76	C35    -2.2460    -1.2680     0.5260	C.2	1	PTX1    -0.1100
77	C36     1.4430     1.5010     2.2080	C.3	1	PTX1     0.1860
78	C37     2.2500     0.1860     2.1930	C.3	1	PTX1    -0.2120
79	C38     3.4680     0.2690     1.2520	C.3	1	PTX1     0.2720
80	C39     5.7240    -0.1490     2.1040	C.2	1	PTX1     0.8530
81	C40     6.5940    -1.3340     2.5220	C.3	1	PTX1     0.1240
82	C41     6.0960    -2.0510     3.7880	C.3	1	PTX1     0.1180
83	C42     7.2450    -3.8560     5.1880	C.2	1	PTX1     0.3410
84	C43     6.4800    -3.7420     6.3130	C.2	1	PTX1    -0.1370
85	C44     5.1520    -3.5250     6.2680	C.2	1	PTX1    -0.0240
86	C45     4.4230    -3.4100     7.3890	C.2	1	PTX1    -0.1090
87	C46     5.0090    -3.5240     8.5890	C.2	1	PTX1    -0.1150
88	C47     6.3240    -3.7710     8.6550	C.2	1	PTX1    -0.1090
89	C48     7.0470    -3.8870     7.5290	C.2	1	PTX1    -0.0240
90	C49     6.1100    -1.0590     4.9370	C.2	1	PTX1    -0.0400
91	C50     7.2670    -0.6470     5.4870	C.2	1	PTX1    -0.1060
92	C51     7.2780     0.2310     6.5020	C.2	1	PTX1    -0.1150
93	C52     6.1240     0.7170     6.9830	C.2	1	PTX1    -0.1150
94	C53     4.9630     0.3220     6.4400	C.2	1	PTX1    -0.1150
95	C54     4.9620    -0.5560     5.4250	C.2	1	PTX1    -0.1060
96	C55     3.8470     1.6630     0.7550	C.2	1	PTX1    -0.1530
97	C56     4.7760     1.6130    -0.4440	C.3	1	PTX1    -0.2650
98	C57     3.2660     2.7770     1.2700	C.2	1	PTX1    -0.1130
99	C58     3.2700     4.1590     0.6160	C.3	1	PTX1     0.4320
100	C59     4.3890     5.4300    -1.1000	C.2	1	PTX1     0.8340
101	C60     5.2390     5.2150    -2.3360	C.3	1	PTX1    -0.3110
102	C61     1.8320     4.6780     0.3440	C.2	1	PTX1     0.3000
103	C62     0.7440     3.9220    -0.4910	C.3	1	PTX1     0.0880
104	C63     1.4450     3.1770    -1.6530	C.3	1	PTX1    -0.2630
105	C64     2.4640     2.6160     2.5680	C.3	1	PTX1     0.0160
106	C65     3.4790     2.2200     3.6870	C.3	1	PTX1    -0.2690
107	C66     1.8670     3.8760     3.2580	C.3	1	PTX1    -0.2690
108	O2    -0.5200     4.6540    -2.4730	O.3	1	PTX1    -0.4500
109	O3    -2.8320     3.4860    -1.0790	O.3	1	PTX1    -0.3430
110	O4    -2.0160     2.4020     1.7150	O.3	1	PTX1    -0.4220
111	O5    -4.2530     2.1180     1.2400	O.co2	1	PTX1    -0.6170
112	O6    -0.2410     0.5740     0.7650	O.3	1	PTX1    -0.3100
113	O7     0.7710    -0.4580    -0.9560	O.co2	1	PTX1    -0.4960
114	O8     0.4660     1.4110     3.2100	O.3	1	PTX1    -0.4600
115	O9     4.5030    -0.5880     1.6900	O.3	1	PTX1    -0.4190
116	O10     6.1210     0.9930     2.1480	O.co2	1	PTX1    -0.6280
117	O11     6.7040    -2.2880     1.4790	O.3	1	PTX1    -0.6620
118	O12     8.2990    -4.4490     5.2080	O.2	1	PTX1    -0.4580
119	O13     4.0640     4.2260    -0.5550	O.3	1	PTX1    -0.4270
120	O14     4.0460     6.5080    -0.6740	O.co2	1	PTX1    -0.6250
121	O15     1.5320     5.7310     0.8710	O.2	1	PTX1    -0.5150
122	H40     0.4410     5.9180    -1.2370	H	1	PTX1     0.0900
123	H41    -1.0910     5.7690     0.6670	H	1	PTX1     0.0900
124	H42    -2.0610     6.1070    -0.7680	H	1	PTX1     0.0900
125	H43    -3.1320     4.4310     0.7200	H	1	PTX1     0.0900
126	H44    -2.8500     1.4370    -0.6620	H	1	PTX1     0.0900
127	H45    -1.3920     2.0690    -1.5600	H	1	PTX1     0.0900
128	H46    -2.6980     0.7150     3.5860	H	1	PTX1     0.0900
129	H47    -3.1200     2.3940     4.1270	H	1	PTX1     0.0900
130	H48    -4.4220     1.2330     3.6670	H	1	PTX1     0.0900
131	H49     0.0270     3.5570     1.4780	H	1	PTX1     0.0900
132	H50     1.4430     1.4780     0.0800	H	1	PTX1     0.0900
133	H51    -0.3380    -2.4190    -1.9510	H	1	PTX1     0.1150
134	H52    -2.1360    -3.9880    -2.0890	H	1	PTX1     0.1150
135	H53    -4.0470    -3.8420    -0.5730	H	1	PTX1     0.1150
136	H54    -4.1150    -2.0780     1.1200	H	1	PTX1     0.1150
137	H55    -2.3240    -0.4980     1.3100	H	1	PTX1     0.1150
138	H56    -0.1930     0.7630     2.9420	H	1	PTX1     0.2920
139	H57     1.6110    -0.6860     1.9220	H	1	PTX1     0.0900
140	H58     2.5570    -0.0810     3.2270	H	1	PTX1     0.0900
141	H59     3.1050    -0.2130     0.3060	H	1	PTX1     0.0900
142	H60     7.6300    -0.9560     2.6800	H	1	PTX1     0.0900
143	H61     7.2350    -1.9490     0.7550	H	1	PTX1     0.4210
144	H62     5.0770    -2.4390     3.5610	H	1	PTX1     0.0900
145	H63     7.6070    -3.4500     3.2430	H	1	PTX1     0.2740
146	H64     4.6050    -3.4750     5.3170	H	1	PTX1     0.1150
147	H65     3.3350    -3.2360     7.3260	H	1	PTX1     0.1150
148	H66     4.4120    -3.4320     9.5120	H	1	PTX1     0.1150
149	H67     6.8120    -3.8770     9.6380	H	1	PTX1     0.1150
150	H68     8.1270    -4.0790     7.6470	H	1	PTX1     0.1150
151	H69     8.2280    -1.0310     5.1070	H	1	PTX1     0.1150
152	H70     8.2360     0.5540     6.9420	H	1	PTX1     0.1150
153	H71     6.1290     1.4380     7.8170	H	1	PTX1     0.1150
154	H72     4.0100     0.7180     6.8280	H	1	PTX1     0.1150
155	H73     3.9970    -0.8660     4.9920	H	1	PTX1     0.1150
156	H74     4.2360     1.7290    -1.4080	H	1	PTX1     0.0900
157	H75     5.5950     2.3600    -0.3670	H	1	PTX1     0.0900
158	H76     5.3040     0.6380    -0.5160	H	1	PTX1     0.0900
159	H77     3.7630     4.8220     1.3670	H	1	PTX1     0.0900
160	H78     6.1840     4.6880    -2.0700	H	1	PTX1     0.0900
161	H79     4.6830     4.6090    -3.0870	H	1	PTX1     0.0900
162	H80     5.5050     6.1890    -2.8060	H	1	PTX1     0.0900
163	H81     0.7400     2.5210    -2.2100	H	1	PTX1     0.0900
164	H82     1.9090     3.8880    -2.3740	H	1	PTX1     0.0900
165	H83     2.2790     2.5210    -1.3540	H	1	PTX1     0.0900
166	H84     2.9660     1.9620     4.6410	H	1	PTX1     0.0900
167	H85     4.1330     1.3620     3.4610	H	1	PTX1     0.0900
168	H86     4.2000     3.0420     3.9010	H	1	PTX1     0.0900
169	H87     1.4310     3.6230     4.2510	H	1	PTX1     0.0900
170	H88     2.6380     4.6570     3.4430	H	1	PTX1     0.0900
171	H89     1.0410     4.4040     2.7610	H	1	PTX1     0.0900
@<TRIPOS>BOND
1	1	2	1
2	1	21	1
3	1	22	1
4	1	23	1
5	2	3	1
6	2	24	1
7	2	25	1
8	3	4	1
9	3	26	1
10	3	27	1
11	4	5	1
12	4	28	1
13	4	29	1
14	5	6	1
15	5	30	1
16	5	31	1
17	6	7	1
18	6	32	1
19	6	33	1
20	7	8	1
21	7	34	1
22	7	35	1
23	8	9	1
24	8	36	1
25	8	37	1
26	9	10	1
27	9	38	1
28	9	39	1
29	10	11	1
30	10	40	1
31	10	41	1
32	11	12	1
33	11	42	1
34	11	43	1
35	12	13	1
36	12	44	1
37	12	45	1
38	13	14	1
39	13	46	1
40	13	47	1
41	14	15	1
42	14	48	1
43	14	49	1
44	15	16	1
45	15	20	1
46	15	50	1
47	16	51	1
48	16	52	1
49	16	53	1
50	17	18	1
51	17	19	1
52	17	108	1
53	18	54	1
54	18	55	1
55	18	56	1
56	19	57	1
57	19	58	1
58	19	59	1
59	17	20	1
60	60	83	1
61	60	145	1
62	61	62	1
63	61	103	1
64	61	122	1
65	62	63	1
66	62	123	1
67	62	124	1
68	63	65	1
69	63	109	1
70	63	125	1
71	64	65	1
72	64	126	1
73	64	127	1
74	65	68	1
75	65	110	1
76	66	67	1
77	66	111	2
78	67	128	1
79	67	129	1
80	67	130	1
81	68	69	1
82	68	103	1
83	68	131	1
84	69	77	1
85	69	112	1
86	69	132	1
87	70	71	1
88	70	113	2
89	71	72	1
90	71	76	2
91	72	73	2
92	72	133	1
93	73	74	1
94	73	134	1
95	74	75	2
96	74	135	1
97	75	76	1
98	75	136	1
99	76	137	1
100	77	78	1
101	77	105	1
102	77	114	1
103	78	79	1
104	78	139	1
105	78	140	1
106	79	96	1
107	79	115	1
108	79	141	1
109	80	81	1
110	80	116	2
111	81	82	1
112	81	117	1
113	81	142	1
114	60	82	1
115	82	90	1
116	82	144	1
117	83	84	1
118	83	118	2
119	84	85	1
120	84	89	2
121	85	86	2
122	85	146	1
123	86	87	1
124	86	147	1
125	87	88	2
126	87	148	1
127	88	89	1
128	88	149	1
129	89	150	1
130	90	91	1
131	90	95	2
132	91	92	2
133	91	151	1
134	92	93	1
135	92	152	1
136	93	94	2
137	93	153	1
138	94	95	1
139	94	154	1
140	95	155	1
141	96	97	1
142	96	98	2
143	97	156	1
144	97	157	1
145	97	158	1
146	98	99	1
147	98	105	1
148	99	102	1
149	99	119	1
150	99	159	1
151	100	101	1
152	100	120	2
153	101	160	1
154	101	161	1
155	101	162	1
156	102	103	1
157	102	121	2
158	103	104	1
159	104	163	1
160	104	164	1
161	104	165	1
162	105	106	1
163	105	107	1
164	106	166	1
165	106	167	1
166	106	168	1
167	107	169	1
168	107	170	1
169	107	171	1
170	61	108	1
171	64	109	1
172	66	110	1
173	70	112	1
174	114	138	1
175	80	115	1
176	117	143	1
177	100	119	1
