@<TRIPOS>MOLECULE
ABI 
121 125 0 0 0
SMALL
USER_CHARGES
#CGenFF output mol2 file
@<TRIPOS>ATOM
1	N    20.3400     6.5400     4.7610	N.2	1	ABL1    -0.5990
2	C1    10.3960    -0.4230     3.6820	C.3	1	ABL1     0.1870
3	C2    10.9720     0.7310     2.8560	C.3	1	ABL1    -0.1960
4	C3    11.5230     1.8440     3.7600	C.3	1	ABL1    -0.1740
5	C4    12.6020     1.3500     4.7630	C.3	1	ABL1    -0.0010
6	C5    12.1120     1.5930     6.2100	C.3	1	ABL1    -0.2720
7	C6    12.7590    -0.1580     4.5940	C.2	1	ABL1     0.0030
8	C7    13.9530    -0.7640     4.4980	C.2	1	ABL1    -0.1530
9	C8    15.2750    -0.0550     4.5240	C.3	1	ABL1    -0.1780
10	C9    15.1560     1.3570     5.1110	C.3	1	ABL1    -0.0780
11	C10    16.4300     2.1630     4.8310	C.3	1	ABL1    -0.1360
12	C11    17.7860     1.5660     5.2120	C.3	1	ABL1    -0.1570
13	C12    18.6100     2.8210     5.0920	C.2	1	ABL1    -0.0660
14	C13    17.9060     3.9680     5.1720	C.2	1	ABL1    -0.0070
15	C14    18.4590     5.2030     5.1320	C.2	1	ABL1     0.1060
16	C15    17.7730     6.3270     5.4180	C.2	1	ABL1    -0.1130
17	C16    18.3710     7.5270     5.3670	C.2	1	ABL1    -0.1230
18	C17    19.6660     7.5740     5.0300	C.2	1	ABL1     0.1820
19	C18    19.7550     5.4180     4.8160	C.2	1	ABL1     0.1680
20	C19    16.4360     3.5970     5.4200	C.3	1	ABL1    -0.1710
21	C20    16.2190     3.6420     6.9480	C.3	1	ABL1    -0.2710
22	C21    15.3060     4.3070     4.6450	C.3	1	ABL1    -0.1860
23	C22    13.9510     3.5900     4.8300	C.3	1	ABL1    -0.1770
24	C23    13.9500     2.0840     4.4800	C.3	1	ABL1    -0.0980
25	C24    11.4920    -0.9900     4.5910	C.3	1	ABL1    -0.1850
26	O1     9.3230     0.0800     4.4300	O.3	1	ABL1    -0.4590
27	H1    10.0310    -1.1820     2.9530	H	1	ABL1     0.0900
28	H2    10.1810     1.1490     2.1860	H	1	ABL1     0.0900
29	H3    11.7810     0.3540     2.1860	H	1	ABL1     0.0900
30	H4    10.6740     2.3180     4.3060	H	1	ABL1     0.0900
31	H5    11.9140     2.6480     3.0960	H	1	ABL1     0.0900
32	H6    11.8810     2.6610     6.4120	H	1	ABL1     0.0900
33	H7    11.1650     1.0540     6.4310	H	1	ABL1     0.0900
34	H8    12.8580     1.2550     6.9640	H	1	ABL1     0.0900
35	H9    13.9990    -1.8600     4.3760	H	1	ABL1     0.1500
36	H10    15.6610    -0.0280     3.4780	H	1	ABL1     0.0900
37	H11    15.9940    -0.6490     5.1370	H	1	ABL1     0.0900
38	H12    15.0120     1.2670     6.2120	H	1	ABL1     0.0900
39	H13    16.4830     2.2610     3.7130	H	1	ABL1     0.0900
40	H14    18.1190     0.7800     4.4970	H	1	ABL1     0.0900
41	H15    17.8130     1.1700     6.2520	H	1	ABL1     0.0900
42	H16    19.6980     2.7160     4.9890	H	1	ABL1     0.1750
43	H17    16.7240     6.3200     5.7320	H	1	ABL1     0.1150
44	H18    17.8180     8.4500     5.6070	H	1	ABL1     0.1150
45	H19    20.1960     8.5400     4.9800	H	1	ABL1     0.1220
46	H20    20.4410     4.5970     4.5510	H	1	ABL1     0.1220
47	H21    16.9930     3.0630     7.4980	H	1	ABL1     0.0900
48	H22    16.2650     4.6860     7.3300	H	1	ABL1     0.0900
49	H23    15.2390     3.2350     7.2730	H	1	ABL1     0.0900
50	H24    15.1620     5.3580     4.9740	H	1	ABL1     0.0900
51	H25    15.5560     4.3550     3.5590	H	1	ABL1     0.0900
52	H26    13.1820     4.1240     4.2240	H	1	ABL1     0.0900
53	H27    13.6450     3.7340     5.8880	H	1	ABL1     0.0900
54	H28    14.1220     2.0230     3.3750	H	1	ABL1     0.0900
55	H29    11.7140    -2.0360     4.2730	H	1	ABL1     0.0900
56	H30    11.1530    -1.0660     5.6490	H	1	ABL1     0.0900
57	C25    -5.9800    -4.0620   -14.1380	C.3	1	ABL1    -0.2730
58	C26    -4.5450    -4.1180   -13.5980	C.3	1	ABL1    -0.1770
59	C27    -4.4500    -3.5530   -12.1710	C.3	1	ABL1    -0.1810
60	C28    -3.0140    -3.6090   -11.6240	C.3	1	ABL1    -0.1790
61	C29    -2.9210    -3.0480   -10.1960	C.3	1	ABL1    -0.1800
62	C30    -1.4870    -3.1090    -9.6450	C.3	1	ABL1    -0.1800
63	C31    -1.3990    -2.5580    -8.2120	C.3	1	ABL1    -0.1800
64	C32     0.0320    -2.6290    -7.6530	C.3	1	ABL1    -0.1800
65	C33     0.1110    -2.0930    -6.2140	C.3	1	ABL1    -0.1800
66	C34     1.5350    -2.1820    -5.6410	C.3	1	ABL1    -0.1800
67	C35     1.6010    -1.6700    -4.1930	C.3	1	ABL1    -0.1800
68	C36     3.0170    -1.7810    -3.6030	C.3	1	ABL1    -0.1800
69	C37     3.0660    -1.2980    -2.1440	C.3	1	ABL1    -0.1800
70	C38     4.4700    -1.4360    -1.5330	C.3	1	ABL1    -0.1800
71	C39     4.4980    -0.9920    -0.0610	C.3	1	ABL1    -0.1800
72	C40     5.8890    -1.1590     0.5720	C.3	1	ABL1    -0.1800
73	C41     5.8900    -0.7580     2.0560	C.3	1	ABL1    -0.1800
74	C42     7.2600    -0.9570     2.7060	C.3	1	ABL1     0.0360
75	C43     8.3130    -0.8140     4.8530	C.3	1	ABL1     0.3790
76	C44     7.9110    -0.3350     6.2550	C.3	1	ABL1    -0.2690
77	C45     8.6750    -2.2940     4.9650	C.3	1	ABL1    -0.2690
78	O2     7.1600    -0.6070     4.0630	O.3	1	ABL1    -0.4020
79	H31    -6.0350    -4.4740   -15.1720	H	1	ABL1     0.0900
80	H32    -6.6730    -4.6570   -13.5000	H	1	ABL1     0.0900
81	H33    -6.3570    -3.0140   -14.1710	H	1	ABL1     0.0900
82	H34    -3.8750    -3.5370   -14.2750	H	1	ABL1     0.0900
83	H35    -4.1910    -5.1760   -13.6060	H	1	ABL1     0.0900
84	H36    -5.1240    -4.1360   -11.4990	H	1	ABL1     0.0900
85	H37    -4.8060    -2.4960   -12.1680	H	1	ABL1     0.0900
86	H38    -2.3390    -3.0250   -12.2950	H	1	ABL1     0.0900
87	H39    -2.6570    -4.6660   -11.6300	H	1	ABL1     0.0900
88	H40    -3.5990    -3.6290    -9.5270	H	1	ABL1     0.0900
89	H41    -3.2740    -1.9890   -10.1900	H	1	ABL1     0.0900
90	H42    -0.8080    -2.5230   -10.3090	H	1	ABL1     0.0900
91	H43    -1.1330    -4.1680    -9.6550	H	1	ABL1     0.0900
92	H44    -2.0830    -3.1410    -7.5510	H	1	ABL1     0.0900
93	H45    -1.7470    -1.4980    -8.2010	H	1	ABL1     0.0900
94	H46     0.7170    -2.0390    -8.3070	H	1	ABL1     0.0900
95	H47     0.3820    -3.6890    -7.6720	H	1	ABL1     0.0900
96	H48    -0.5840    -2.6790    -5.5650	H	1	ABL1     0.0900
97	H49    -0.2300    -1.0310    -6.1950	H	1	ABL1     0.0900
98	H50     2.2300    -1.5860    -6.2780	H	1	ABL1     0.0900
99	H51     1.8790    -3.2430    -5.6730	H	1	ABL1     0.0900
100	H52     0.8940    -2.2600    -3.5630	H	1	ABL1     0.0900
101	H53     1.2680    -0.6050    -4.1600	H	1	ABL1     0.0900
102	H54     3.7250    -1.1770    -4.2180	H	1	ABL1     0.0900
103	H55     3.3540    -2.8430    -3.6510	H	1	ABL1     0.0900
104	H56     2.3430    -1.8940    -1.5370	H	1	ABL1     0.0900
105	H57     2.7430    -0.2310    -2.0940	H	1	ABL1     0.0900
106	H58     5.1950    -0.8230    -2.1210	H	1	ABL1     0.0900
107	H59     4.7990    -2.5000    -1.6020	H	1	ABL1     0.0900
108	H60     3.7570    -1.5950     0.5160	H	1	ABL1     0.0900
109	H61     4.1840     0.0770     0.0100	H	1	ABL1     0.0900
110	H62     6.6290    -0.5370     0.0160	H	1	ABL1     0.0900
111	H63     6.2090    -2.2240     0.4780	H	1	ABL1     0.0900
112	H64     5.1340    -1.3710     2.6030	H	1	ABL1     0.0900
113	H65     5.5840     0.3110     2.1530	H	1	ABL1     0.0900
114	H66     8.0030    -0.3010     2.2010	H	1	ABL1     0.0900
115	H67     7.5580    -2.0230     2.6030	H	1	ABL1     0.0900
116	H68     8.7580    -0.4240     6.9730	H	1	ABL1     0.0900
117	H69     7.0590    -0.9250     6.6630	H	1	ABL1     0.0900
118	H70     7.5990     0.7350     6.2450	H	1	ABL1     0.0900
119	H71     7.7730    -2.8870     5.2400	H	1	ABL1     0.0900
120	H72     9.0710    -2.7590     4.0390	H	1	ABL1     0.0900
121	H73     9.4180    -2.4830     5.7690	H	1	ABL1     0.0900
@<TRIPOS>BOND
1	1	19	1
2	2	3	1
3	2	25	1
4	2	27	1
5	3	4	1
6	3	28	1
7	3	29	1
8	4	5	1
9	4	30	1
10	4	31	1
11	5	6	1
12	5	7	1
13	5	24	1
14	6	32	1
15	6	33	1
16	6	34	1
17	7	8	2
18	7	25	1
19	8	9	1
20	8	35	1
21	9	10	1
22	9	36	1
23	9	37	1
24	10	11	1
25	10	24	1
26	10	38	1
27	11	12	1
28	11	20	1
29	11	39	1
30	12	13	1
31	12	40	1
32	12	41	1
33	13	14	2
34	13	42	1
35	14	15	1
36	14	20	1
37	15	16	1
38	15	19	2
39	16	17	2
40	16	43	1
41	17	18	1
42	17	44	1
43	1	18	2
44	18	45	1
45	19	46	1
46	20	21	1
47	20	22	1
48	21	47	1
49	21	48	1
50	21	49	1
51	22	23	1
52	22	50	1
53	22	51	1
54	23	24	1
55	23	52	1
56	23	53	1
57	24	54	1
58	25	55	1
59	25	56	1
60	2	26	1
61	57	58	1
62	57	79	1
63	57	80	1
64	57	81	1
65	58	59	1
66	58	82	1
67	58	83	1
68	59	60	1
69	59	84	1
70	59	85	1
71	60	61	1
72	60	86	1
73	60	87	1
74	61	62	1
75	61	88	1
76	61	89	1
77	62	63	1
78	62	90	1
79	62	91	1
80	63	64	1
81	63	92	1
82	63	93	1
83	64	65	1
84	64	94	1
85	64	95	1
86	65	66	1
87	65	96	1
88	65	97	1
89	66	67	1
90	66	98	1
91	66	99	1
92	67	68	1
93	67	100	1
94	67	101	1
95	68	69	1
96	68	102	1
97	68	103	1
98	69	70	1
99	69	104	1
100	69	105	1
101	70	71	1
102	70	106	1
103	70	107	1
104	71	72	1
105	71	108	1
106	71	109	1
107	72	73	1
108	72	110	1
109	72	111	1
110	73	74	1
111	73	112	1
112	73	113	1
113	74	78	1
114	74	114	1
115	74	115	1
116	26	75	1
117	75	76	1
118	75	77	1
119	76	116	1
120	76	117	1
121	76	118	1
122	77	119	1
123	77	120	1
124	77	121	1
125	75	78	1
