@<TRIPOS>MOLECULE
PTX
147 153 1 0 0
SMALL
USER_CHARGES


@<TRIPOS>ATOM
      1 C           0.0030    7.5687    8.1322 C.3       1     PTL    0.0000
      2 O           1.0444    7.1537    7.2744 O.3       1     PTL    0.0000
      3 C           0.5597    6.4950    6.1298 C.3       1     PTL    0.0000
      4 C           1.7409    6.0776    5.2667 C.3       1     PTL    0.0000
      5 O           1.2538    5.4123    4.1272 O.3       1     PTL    0.0000
      6 C           2.2837    4.9767    3.2738 C.3       1     PTL    0.0000
      7 C           1.6609    4.2594    2.0857 C.3       1     PTL    0.0000
      8 O           2.6905    3.7921    1.2489 O.3       1     PTL    0.0000
      9 C           2.2005    3.0893    0.1331 C.3       1     PTL    0.0000
     10 C           3.3794    2.5771   -0.6821 C.3       1     PTL    0.0000
     11 O           2.8773    1.8399   -1.7711 O.3       1     PTL    0.0000
     12 C           3.8093    1.0166   -2.4466 C.3       1     PTL    0.0000
     13 C           3.0693    0.4669   -3.6670 C.3       1     PTL    0.0000
     14 C           5.0406    1.7980   -2.8890 C.3       1     PTL    0.0000
     15 O           4.0523   -0.0328   -1.5361 O.3       1     PTX    0.0000
     16 C           5.1116   -0.9230   -1.8195 C.3       1     PTX    0.0000
     17 C           6.4646   -0.4298   -1.2846 C.2       1     PTX    0.0000
     18 O           6.6123    0.4843   -0.5048 O.2       1     PTX    0.0000
     19 O           7.4684   -1.1509   -1.8566 O.3       1     PTX    0.0000
     20 C           8.8146   -0.7823   -1.6598 C.3       1     PTX    0.0000
     21 C           9.2204   -0.6920   -0.1760 C.3       1     PTX    0.0000
     22 C          10.6657   -1.1677    0.0559 C.3       1     PTX    0.0000
     23 O          10.9063   -1.1905    1.4370 O.3       1     PTX    0.0000
     24 C          11.6267   -0.1086   -0.5489 C.3       1     PTX    0.0000
     25 O          11.4619    1.0961    0.1560 O.3       1     PTX    0.0000
     26 C          10.9219    2.2379   -0.3965 C.2       1     PTX    0.0000
     27 O          10.5946    2.2519   -1.5674 O.2       1     PTX    0.0000
     28 C          10.7529    3.3519    0.3805 C.ar      1     PTX    0.0000
     29 C          10.2268    4.4915   -0.1105 C.ar      1     PTX    0.0000
     30 C          10.0721    5.5722    0.6715 C.ar      1     PTX    0.0000
     31 C          10.4416    5.5334    1.9598 C.ar      1     PTX    0.0000
     32 C          10.9662    4.4061    2.4611 C.ar      1     PTX    0.0000
     33 C          11.1187    3.3271    1.6772 C.ar      1     PTX    0.0000
     34 C          13.1298   -0.4710   -0.6493 C.3       1     PTX    0.0000
     35 C          13.6361   -0.8941   -2.0773 C.3       1     PTX    0.0000
     36 C          13.0210   -0.1019   -3.2551 C.3       1     PTX    0.0000
     37 C          13.2927   -2.4062   -2.2656 C.2       1     PTX    0.0000
     38 O          14.1177   -3.2348   -1.9391 O.2       1     PTX    0.0000
     39 C          11.9367   -2.9447   -2.7985 C.3       1     PTX    0.0000
     40 O          11.8521   -2.7530   -4.1998 O.3       1     PTX    0.0000
     41 C          12.5892   -3.5238   -5.0460 C.2       1     PTX    0.0000
     42 C          12.3414   -3.0856   -6.4761 C.3       1     PTX    0.0000
     43 O          13.3337   -4.4180   -4.7163 O.2       1     PTX    0.0000
     44 C          10.7500   -2.3742   -2.0241 C.2       1     PTX    0.0000
     45 C           9.7349   -1.6375   -2.5422 C.2       1     PTX    0.0000
     46 C           9.4472   -1.4508   -4.0190 C.3       1     PTX    0.0000
     47 C          10.7326   -2.6096   -0.5138 C.3       1     PTX    0.0000
     48 C           9.4662   -3.4828   -0.2407 C.3       1     PTX    0.0000
     49 C          11.8023   -3.5333    0.1321 C.3       1     PTX    0.0000
     50 C          15.1801   -0.7360   -2.2046 C.3       1     PTX    0.0000
     51 O          15.5219    0.5066   -2.7824 O.3       1     PTX    0.0000
     52 C          15.9475   -0.8666   -0.8928 C.3       1     PTX    0.0000
     53 C          15.5407    0.1783    0.1309 C.3       1     PTX    0.0000
     54 O          15.7571    1.4963   -0.3183 O.3       1     PTX    0.0000
     55 C          14.3747    1.7964   -0.2327 C.3       1     PTX    0.0000
     56 C          14.0299    0.3888    0.2612 C.3       1     PTX    0.0000
     57 O          13.6053    0.2724    1.5875 O.3       1     PTX    0.0000
     58 C          14.1041    0.9642    2.6480 C.2       1     PTX    0.0000
     59 C          13.3614    0.5450    3.9039 C.3       1     PTX    0.0000
     60 O          14.9913    1.7853    2.6323 O.2       1     PTX    0.0000
     61 C           4.7248   -2.2977   -1.2252 C.3       1     PTX    0.0000
     62 N           5.6973   -3.3104   -1.6586 N.am      1     PTX    0.0000
     63 C           5.8609   -4.5960   -1.2140 C.2       1     PTX    0.0000
     64 O           6.9063   -5.0903   -1.5695 O.2       1     PTX    0.0000
     65 C           5.0589   -5.2392   -0.3137 C.ar      1     PTX    0.0000
     66 C           5.5879   -6.1941    0.4803 C.ar      1     PTX    0.0000
     67 C           4.8465   -6.8457    1.3903 C.ar      1     PTX    0.0000
     68 C           3.5429   -6.5658    1.5231 C.ar      1     PTX    0.0000
     69 C           2.9917   -5.6390    0.7277 C.ar      1     PTX    0.0000
     70 C           3.7421   -4.9930   -0.1790 C.ar      1     PTX    0.0000
     71 C           4.6310   -2.1826    0.2869 C.ar      1     PTX    0.0000
     72 C           5.6968   -2.3783    1.0841 C.ar      1     PTX    0.0000
     73 C           5.6009   -2.2664    2.4176 C.ar      1     PTX    0.0000
     74 C           4.4257   -1.9500    2.9807 C.ar      1     PTX    0.0000
     75 C           3.3535   -1.7456    2.2014 C.ar      1     PTX    0.0000
     76 C           3.4607   -1.8605    0.8688 C.ar      1     PTX    0.0000
     77 H           0.4619    8.0791    9.0083 H         1     PTL    0.0000
     78 H          -0.6652    8.2880    7.6086 H         1     PTL    0.0000
     79 H          -0.5739    6.6884    8.4931 H         1     PTL    0.0000
     80 H          -0.0210    5.5950    6.4392 H         1     PTL    0.0000
     81 H          -0.1037    7.1851    5.5585 H         1     PTL    0.0000
     82 H           2.3195    6.9769    4.9518 H         1     PTL    0.0000
     83 H           2.4055    5.3913    5.8412 H         1     PTL    0.0000
     84 H           2.8726    5.8555    2.9227 H         1     PTL    0.0000
     85 H           2.9533    4.2787    3.8281 H         1     PTL    0.0000
     86 H           1.0541    3.3956    2.4445 H         1     PTL    0.0000
     87 H           1.0078    4.9597    1.5150 H         1     PTL    0.0000
     88 H           1.5848    2.2273    0.4814 H         1     PTL    0.0000
     89 H           1.5705    3.7683   -0.4871 H         1     PTL    0.0000
     90 H           3.9730    3.4412   -1.0586 H         1     PTL    0.0000
     91 H           4.0182    1.9383   -0.0321 H         1     PTL    0.0000
     92 H           3.7125   -0.1758   -4.3073 H         1     PTL    0.0000
     93 H           2.7010    1.2956   -4.3139 H         1     PTL    0.0000
     94 H           2.1834   -0.1383   -3.3664 H         1     PTL    0.0000
     95 H           4.7402    2.6781   -3.5022 H         1     PTL    0.0000
     96 H           5.6502    2.1858   -2.0462 H         1     PTL    0.0000
     97 H           5.7164    1.1877   -3.5282 H         1     PTL    0.0000
     98 H           5.1984   -1.0467   -2.9230 H         1     PTX    0.0000
     99 H           8.9181    0.2490   -2.0822 H         1     PTX    0.0000
    100 H           9.0967    0.3450    0.2082 H         1     PTX    0.0000
    101 H           8.5277   -1.2712    0.4721 H         1     PTX    0.0000
    102 H          10.8209   -0.2953    1.7792 H         1     PTX    0.0000
    103 H          11.2850    0.0580   -1.5800 H         1     PTX    0.0000
    104 H           9.9050    4.5854   -1.1609 H         1     PTX    0.0000
    105 H           9.6400    6.4980    0.2553 H         1     PTX    0.0000
    106 H          10.3153    6.4211    2.6017 H         1     PTX    0.0000
    107 H          11.2728    4.3674    3.5202 H         1     PTX    0.0000
    108 H          11.5550    2.4283    2.1421 H         1     PTX    0.0000
    109 H          13.2436   -1.3988   -0.0519 H         1     PTX    0.0000
    110 H          13.0777    0.9976   -3.0989 H         1     PTX    0.0000
    111 H          13.5318   -0.3435   -4.2151 H         1     PTX    0.0000
    112 H          11.9535   -0.3092   -3.4446 H         1     PTX    0.0000
    113 H          11.8793   -4.0447   -2.6205 H         1     PTX    0.0000
    114 H          12.6323   -2.0188   -6.6088 H         1     PTX    0.0000
    115 H          12.9398   -3.6990   -7.1868 H         1     PTX    0.0000
    116 H          11.2651   -3.2041   -6.7365 H         1     PTX    0.0000
    117 H          10.1348   -0.7203   -4.4960 H         1     PTX    0.0000
    118 H           9.4625   -2.4181   -4.5660 H         1     PTX    0.0000
    119 H           8.4199   -1.0658   -4.1985 H         1     PTX    0.0000
    120 H           9.2464   -3.5699    0.8478 H         1     PTX    0.0000
    121 H           8.5379   -3.1356   -0.7316 H         1     PTX    0.0000
    122 H           9.5846   -4.5162   -0.6388 H         1     PTX    0.0000
    123 H          11.5871   -3.6950    1.2127 H         1     PTX    0.0000
    124 H          11.8273   -4.5429   -0.3355 H         1     PTX    0.0000
    125 H          12.8502   -3.1998    0.1237 H         1     PTX    0.0000
    126 H          15.5800   -1.4833   -2.9328 H         1     PTX    0.0000
    127 H          16.3038    0.8714   -2.3625 H         1     PTX    0.0000
    128 H          15.7816   -1.8736   -0.4452 H         1     PTX    0.0000
    129 H          17.0441   -0.7832   -1.0829 H         1     PTX    0.0000
    130 H          16.0793    0.0270    1.0930 H         1     PTX    0.0000
    131 H          14.1862    2.6362    0.4659 H         1     PTX    0.0000
    132 H          13.9719    2.0312   -1.2397 H         1     PTX    0.0000
    133 H          12.2630    0.6755    3.7752 H         1     PTX    0.0000
    134 H          13.5732   -0.5235    4.1353 H         1     PTX    0.0000
    135 H          13.6801    1.1594    4.7758 H         1     PTX    0.0000
    136 H           3.7426   -2.5497   -1.6899 H         1     PTX    0.0000
    137 H           6.4338   -3.0135   -2.2995 H         1     PTX    0.0000
    138 H           6.6570   -6.4632    0.4354 H         1     PTX    0.0000
    139 H           5.3090   -7.6117    2.0358 H         1     PTX    0.0000
    140 H           2.9291   -7.1007    2.2666 H         1     PTX    0.0000
    141 H           1.9133   -5.4207    0.8105 H         1     PTX    0.0000
    142 H           3.2074   -4.2886   -0.8275 H         1     PTX    0.0000
    143 H           6.6737   -2.6375    0.6504 H         1     PTX    0.0000
    144 H           6.4888   -2.4336    3.0502 H         1     PTX    0.0000
    145 H           4.3422   -1.8562    4.0761 H         1     PTX    0.0000
    146 H           2.3842   -1.4819    2.6565 H         1     PTX    0.0000
    147 H           2.5670   -1.6859    0.2469 H         1     PTX    0.0000
@<TRIPOS>BOND
     1     1     2     1
     2     1    77     1
     3     1    78     1
     4     1    79     1
     5     2     3     1
     6     3     4     1
     7     3    80     1
     8     3    81     1
     9     4     5     1
    10     4    82     1
    11     4    83     1
    12     5     6     1
    13     6     7     1
    14     6    84     1
    15     6    85     1
    16     7     8     1
    17     7    86     1
    18     7    87     1
    19     8     9     1
    20     9    10     1
    21     9    88     1
    22     9    89     1
    23    10    11     1
    24    10    90     1
    25    10    91     1
    26    11    12     1
    27    12    13     1
    28    12    14     1
    29    12    15     1
    30    13    92     1
    31    13    93     1
    32    13    94     1
    33    14    95     1
    34    14    96     1
    35    14    97     1
    36    15    16     1
    37    16    17     1
    38    16    61     1
    39    16    98     1
    40    17    18     2
    41    17    19     1
    42    19    20     1
    43    20    21     1
    44    20    45     1
    45    20    99     1
    46    21    22     1
    47    21   100     1
    48    21   101     1
    49    22    23     1
    50    22    24     1
    51    22    47     1
    52    23   102     1
    53    24    25     1
    54    24    34     1
    55    24   103     1
    56    25    26     1
    57    26    27     2
    58    26    28     1
    59    28    29     1
    60    28    33     2
    61    29    30     2
    62    29   104     1
    63    30    31     1
    64    30   105     1
    65    31    32     2
    66    31   106     1
    67    32    33     1
    68    32   107     1
    69    33   108     1
    70    34    35     1
    71    34    56     1
    72    34   109     1
    73    35    36     1
    74    35    37     1
    75    35    50     1
    76    36   110     1
    77    36   111     1
    78    36   112     1
    79    37    38     2
    80    37    39     1
    81    39    40     1
    82    39    44     1
    83    39   113     1
    84    40    41     1
    85    41    42     1
    86    41    43     2
    87    42   114     1
    88    42   115     1
    89    42   116     1
    90    44    45     2
    91    44    47     1
    92    45    46     1
    93    46   117     1
    94    46   118     1
    95    46   119     1
    96    47    48     1
    97    47    49     1
    98    48   120     1
    99    48   121     1
   100    48   122     1
   101    49   123     1
   102    49   124     1
   103    49   125     1
   104    50    51     1
   105    50    52     1
   106    50   126     1
   107    51   127     1
   108    52    53     1
   109    52   128     1
   110    52   129     1
   111    53    54     1
   112    53    56     1
   113    53   130     1
   114    54    55     1
   115    55    56     1
   116    55   131     1
   117    55   132     1
   118    56    57     1
   119    57    58     1
   120    58    59     1
   121    58    60     2
   122    59   133     1
   123    59   134     1
   124    59   135     1
   125    61    62     1
   126    61    71     1
   127    61   136     1
   128    62    63     1
   129    62   137     1
   130    63    64     2
   131    63    65     1
   132    65    66     1
   133    65    70     2
   134    66    67     2
   135    66   138     1
   136    67    68     1
   137    67   139     1
   138    68    69     2
   139    68   140     1
   140    69    70     1
   141    69   141     1
   142    70   142     1
   143    71    72     1
   144    71    76     2
   145    72    73     2
   146    72   143     1
   147    73    74     1
   148    73   144     1
   149    74    75     2
   150    74   145     1
   151    75    76     1
   152    75   146     1
   153    76   147     1
