# created with PyMOL 2.5.4
@<TRIPOS>MOLECULE
PTX
147 153 2               
SMALL
USER_CHARGES
@<TRIPOS>ATOM
1	   C	0.003	7.569	8.132	C.3	1	PTL1	0.000	
2	   C	0.560	6.495	6.130	C.3	1	PTL1	0.000	
3	   C	1.741	6.078	5.267	C.3	1	PTL1	0.000	
4	   C	2.284	4.977	3.274	C.3	1	PTL1	0.000	
5	   C	1.661	4.259	2.086	C.3	1	PTL1	0.000	
6	   C	2.201	3.089	0.133	C.3	1	PTL1	0.000	
7	   C	3.379	2.577	-0.682	C.3	1	PTL1	0.000	
8	   C	3.809	1.017	-2.447	C.3	1	PTL1	0.000	
9	   C	3.069	0.467	-3.667	C.3	1	PTL1	0.000	
10	   C	5.041	1.798	-2.889	C.3	1	PTL1	0.000	
11	   O	1.044	7.154	7.274	O.3	1	PTL1	0.000	
12	   O	1.254	5.412	4.127	O.3	1	PTL1	0.000	
13	   O	2.691	3.792	1.249	O.3	1	PTL1	0.000	
14	   O	2.877	1.840	-1.771	O.3	1	PTL1	0.000	
15	   H	0.462	8.079	9.008	 H	1	PTL1	0.000	
16	   H	-0.665	8.288	7.609	 H	1	PTL1	0.000	
17	   H	-0.574	6.688	8.493	 H	1	PTL1	0.000	
18	   H	-0.021	5.595	6.439	 H	1	PTL1	0.000	
19	   H	-0.104	7.185	5.558	 H	1	PTL1	0.000	
20	   H	2.319	6.977	4.952	 H	1	PTL1	0.000	
21	   H	2.405	5.391	5.841	 H	1	PTL1	0.000	
22	   H	2.873	5.856	2.923	 H	1	PTL1	0.000	
23	   H	2.953	4.279	3.828	 H	1	PTL1	0.000	
24	   H	1.054	3.396	2.444	 H	1	PTL1	0.000	
25	   H	1.008	4.960	1.515	 H	1	PTL1	0.000	
26	   H	1.585	2.227	0.481	 H	1	PTL1	0.000	
27	   H	1.571	3.768	-0.487	 H	1	PTL1	0.000	
28	   H	3.973	3.441	-1.059	 H	1	PTL1	0.000	
29	   H	4.018	1.938	-0.032	 H	1	PTL1	0.000	
30	   H	3.713	-0.176	-4.307	 H	1	PTL1	0.000	
31	   H	2.701	1.296	-4.314	 H	1	PTL1	0.000	
32	   H	2.183	-0.138	-3.366	 H	1	PTL1	0.000	
33	   H	4.740	2.678	-3.502	 H	1	PTL1	0.000	
34	   H	5.650	2.186	-2.046	 H	1	PTL1	0.000	
35	   H	5.716	1.188	-3.528	 H	1	PTL1	0.000	
36	   N	5.697	-3.310	-1.659	N.pl3	2	PTX1	0.000	
37	   C	5.112	-0.923	-1.819	C.3	2	PTX1	0.000	
38	   C	6.465	-0.430	-1.285	C.2	2	PTX1	0.000	
39	   C	8.815	-0.782	-1.660	C.3	2	PTX1	0.000	
40	   C	9.220	-0.692	-0.176	C.3	2	PTX1	0.000	
41	   C	10.666	-1.168	0.056	C.3	2	PTX1	0.000	
42	   C	11.627	-0.109	-0.549	C.3	2	PTX1	0.000	
43	   C	10.922	2.238	-0.396	C.2	2	PTX1	0.000	
44	   C	10.753	3.352	0.380	C.2	2	PTX1	0.000	
45	   C	10.227	4.491	-0.111	C.2	2	PTX1	0.000	
46	   C	10.072	5.572	0.672	C.2	2	PTX1	0.000	
47	   C	10.442	5.533	1.960	C.2	2	PTX1	0.000	
48	   C	10.966	4.406	2.461	C.2	2	PTX1	0.000	
49	   C	11.119	3.327	1.677	C.2	2	PTX1	0.000	
50	   C	13.130	-0.471	-0.649	C.3	2	PTX1	0.000	
51	   C	13.636	-0.894	-2.077	C.3	2	PTX1	0.000	
52	   C	13.021	-0.102	-3.255	C.3	2	PTX1	0.000	
53	   C	13.293	-2.406	-2.266	C.2	2	PTX1	0.000	
54	   C	11.937	-2.945	-2.799	C.3	2	PTX1	0.000	
55	   C	12.589	-3.524	-5.046	C.2	2	PTX1	0.000	
56	   C	12.341	-3.086	-6.476	C.3	2	PTX1	0.000	
57	   C	10.750	-2.374	-2.024	C.2	2	PTX1	0.000	
58	   C	9.735	-1.638	-2.542	C.2	2	PTX1	0.000	
59	   C	9.447	-1.451	-4.019	C.3	2	PTX1	0.000	
60	   C	10.733	-2.610	-0.514	C.3	2	PTX1	0.000	
61	   C	9.466	-3.483	-0.241	C.3	2	PTX1	0.000	
62	   C	11.802	-3.533	0.132	C.3	2	PTX1	0.000	
63	   C	15.180	-0.736	-2.205	C.3	2	PTX1	0.000	
64	   C	15.948	-0.867	-0.893	C.3	2	PTX1	0.000	
65	   C	15.541	0.178	0.131	C.3	2	PTX1	0.000	
66	   C	14.375	1.796	-0.233	C.3	2	PTX1	0.000	
67	   C	14.030	0.389	0.261	C.3	2	PTX1	0.000	
68	   C	14.104	0.964	2.648	C.2	2	PTX1	0.000	
69	   C	13.361	0.545	3.904	C.3	2	PTX1	0.000	
70	   C	4.725	-2.298	-1.225	C.3	2	PTX1	0.000	
71	   C	5.861	-4.596	-1.214	C.2	2	PTX1	0.000	
72	   C	5.059	-5.239	-0.314	C.2	2	PTX1	0.000	
73	   C	5.588	-6.194	0.480	C.2	2	PTX1	0.000	
74	   C	4.846	-6.846	1.390	C.2	2	PTX1	0.000	
75	   C	3.543	-6.566	1.523	C.2	2	PTX1	0.000	
76	   C	2.992	-5.639	0.728	C.2	2	PTX1	0.000	
77	   C	3.742	-4.993	-0.179	C.2	2	PTX1	0.000	
78	   C	4.631	-2.183	0.287	C.2	2	PTX1	0.000	
79	   C	5.697	-2.378	1.084	C.2	2	PTX1	0.000	
80	   C	5.601	-2.266	2.418	C.2	2	PTX1	0.000	
81	   C	4.426	-1.950	2.981	C.2	2	PTX1	0.000	
82	   C	3.353	-1.746	2.201	C.2	2	PTX1	0.000	
83	   C	3.461	-1.860	0.869	C.2	2	PTX1	0.000	
84	   O	4.052	-0.033	-1.536	O.3	2	PTX1	0.000	
85	   O	6.612	0.484	-0.505	O.co2	2	PTX1	0.000	
86	   O	7.468	-1.151	-1.857	O.3	2	PTX1	0.000	
87	   O	10.906	-1.191	1.437	O.3	2	PTX1	0.000	
88	   O	11.462	1.096	0.156	O.3	2	PTX1	0.000	
89	   O	10.595	2.252	-1.567	O.co2	2	PTX1	0.000	
90	   O	14.118	-3.235	-1.939	O.2	2	PTX1	0.000	
91	   O	11.852	-2.753	-4.200	O.3	2	PTX1	0.000	
92	   O	13.334	-4.418	-4.716	O.co2	2	PTX1	0.000	
93	   O	15.522	0.507	-2.782	O.3	2	PTX1	0.000	
94	   O	15.757	1.496	-0.318	O.3	2	PTX1	0.000	
95	   O	13.605	0.272	1.587	O.3	2	PTX1	0.000	
96	   O	14.991	1.785	2.632	O.co2	2	PTX1	0.000	
97	   O	6.906	-5.090	-1.569	O.2	2	PTX1	0.000	
98	   H	5.198	-1.047	-2.923	 H	2	PTX1	0.000	
99	   H	8.918	0.249	-2.082	 H	2	PTX1	0.000	
100	   H	9.097	0.345	0.208	 H	2	PTX1	0.000	
101	   H	8.528	-1.271	0.472	 H	2	PTX1	0.000	
102	   H	10.821	-0.295	1.779	 H	2	PTX1	0.000	
103	   H	11.285	0.058	-1.580	 H	2	PTX1	0.000	
104	   H	9.905	4.585	-1.161	 H	2	PTX1	0.000	
105	   H	9.640	6.498	0.255	 H	2	PTX1	0.000	
106	   H	10.315	6.421	2.602	 H	2	PTX1	0.000	
107	   H	11.273	4.367	3.520	 H	2	PTX1	0.000	
108	   H	11.555	2.428	2.142	 H	2	PTX1	0.000	
109	   H	13.244	-1.399	-0.052	 H	2	PTX1	0.000	
110	   H	13.078	0.998	-3.099	 H	2	PTX1	0.000	
111	   H	13.532	-0.343	-4.215	 H	2	PTX1	0.000	
112	   H	11.953	-0.309	-3.445	 H	2	PTX1	0.000	
113	   H	11.879	-4.045	-2.621	 H	2	PTX1	0.000	
114	   H	12.632	-2.019	-6.609	 H	2	PTX1	0.000	
115	   H	12.940	-3.699	-7.187	 H	2	PTX1	0.000	
116	   H	11.265	-3.204	-6.736	 H	2	PTX1	0.000	
117	   H	10.135	-0.720	-4.496	 H	2	PTX1	0.000	
118	   H	9.462	-2.418	-4.566	 H	2	PTX1	0.000	
119	   H	8.420	-1.066	-4.199	 H	2	PTX1	0.000	
120	   H	9.246	-3.570	0.848	 H	2	PTX1	0.000	
121	   H	8.538	-3.136	-0.732	 H	2	PTX1	0.000	
122	   H	9.585	-4.516	-0.639	 H	2	PTX1	0.000	
123	   H	11.587	-3.695	1.213	 H	2	PTX1	0.000	
124	   H	11.827	-4.543	-0.336	 H	2	PTX1	0.000	
125	   H	12.850	-3.200	0.124	 H	2	PTX1	0.000	
126	   H	15.580	-1.483	-2.933	 H	2	PTX1	0.000	
127	   H	16.304	0.871	-2.362	 H	2	PTX1	0.000	
128	   H	15.782	-1.874	-0.445	 H	2	PTX1	0.000	
129	   H	17.044	-0.783	-1.083	 H	2	PTX1	0.000	
130	   H	16.079	0.027	1.093	 H	2	PTX1	0.000	
131	   H	14.186	2.636	0.466	 H	2	PTX1	0.000	
132	   H	13.972	2.031	-1.240	 H	2	PTX1	0.000	
133	   H	12.263	0.675	3.775	 H	2	PTX1	0.000	
134	   H	13.573	-0.524	4.135	 H	2	PTX1	0.000	
135	   H	13.680	1.159	4.776	 H	2	PTX1	0.000	
136	   H	3.743	-2.550	-1.690	 H	2	PTX1	0.000	
137	   H	6.434	-3.013	-2.299	 H	2	PTX1	0.000	
138	   H	6.657	-6.463	0.435	 H	2	PTX1	0.000	
139	   H	5.309	-7.612	2.036	 H	2	PTX1	0.000	
140	   H	2.929	-7.101	2.267	 H	2	PTX1	0.000	
141	   H	1.913	-5.421	0.811	 H	2	PTX1	0.000	
142	   H	3.207	-4.289	-0.827	 H	2	PTX1	0.000	
143	   H	6.674	-2.638	0.650	 H	2	PTX1	0.000	
144	   H	6.489	-2.434	3.050	 H	2	PTX1	0.000	
145	   H	4.342	-1.856	4.076	 H	2	PTX1	0.000	
146	   H	2.384	-1.482	2.657	 H	2	PTX1	0.000	
147	   H	2.567	-1.686	0.247	 H	2	PTX1	0.000	
@<TRIPOS>BOND
1 1 11 1
2 1 15 1
3 1 16 1
4 1 17 1
5 2 3 1
6 2 18 1
7 2 19 1
8 3 12 1
9 3 20 1
10 3 21 1
11 4 5 1
12 4 22 1
13 4 23 1
14 5 13 1
15 5 24 1
16 5 25 1
17 6 7 1
18 6 26 1
19 6 27 1
20 7 14 1
21 7 28 1
22 7 29 1
23 8 9 1
24 8 10 1
25 8 84 1
26 9 30 1
27 9 31 1
28 9 32 1
29 10 33 1
30 10 34 1
31 10 35 1
32 2 11 1
33 4 12 1
34 6 13 1
35 8 14 1
36 36 71 1
37 36 137 1
38 37 38 1
39 37 70 1
40 37 98 1
41 38 85 2
42 38 86 1
43 39 40 1
44 39 58 1
45 39 99 1
46 40 41 1
47 40 100 1
48 40 101 1
49 41 42 1
50 41 60 1
51 41 87 1
52 42 50 1
53 42 88 1
54 42 103 1
55 43 44 1
56 43 89 2
57 44 45 1
58 44 49 2
59 45 46 2
60 45 104 1
61 46 47 1
62 46 105 1
63 47 48 2
64 47 106 1
65 48 49 1
66 48 107 1
67 49 108 1
68 50 51 1
69 50 67 1
70 50 109 1
71 51 52 1
72 51 53 1
73 51 63 1
74 52 110 1
75 52 111 1
76 52 112 1
77 53 54 1
78 53 90 2
79 54 57 1
80 54 91 1
81 54 113 1
82 55 56 1
83 55 92 2
84 56 114 1
85 56 115 1
86 56 116 1
87 57 58 2
88 57 60 1
89 58 59 1
90 59 117 1
91 59 118 1
92 59 119 1
93 60 61 1
94 60 62 1
95 61 120 1
96 61 121 1
97 61 122 1
98 62 123 1
99 62 124 1
100 62 125 1
101 63 64 1
102 63 93 1
103 63 126 1
104 64 65 1
105 64 128 1
106 64 129 1
107 65 67 1
108 65 94 1
109 65 130 1
110 66 67 1
111 66 131 1
112 66 132 1
113 67 95 1
114 68 69 1
115 68 96 2
116 69 133 1
117 69 134 1
118 69 135 1
119 36 70 1
120 70 78 1
121 70 136 1
122 71 72 1
123 71 97 2
124 72 73 1
125 72 77 2
126 73 74 2
127 73 138 1
128 74 75 1
129 74 139 1
130 75 76 2
131 75 140 1
132 76 77 1
133 76 141 1
134 77 142 1
135 78 79 1
136 78 83 2
137 79 80 2
138 79 143 1
139 80 81 1
140 80 144 1
141 81 82 2
142 81 145 1
143 82 83 1
144 82 146 1
145 83 147 1
146 37 84 1
147 39 86 1
148 87 102 1
149 43 88 1
150 55 91 1
151 93 127 1
152 66 94 1
153 68 95 1
@<TRIPOS>SUBSTRUCTURE
1	PTL1	1	GROUP	1 ****	PTL
2	PTX1	36	GROUP	1 ****	PTX
