@<TRIPOS>MOLECULE
ABI
91 95 1 0 0
SMALL
USER_CHARGES


@<TRIPOS>ATOM
      1 C          -7.3278   -1.7237   -8.6597 C.3       1     ABL    0.0000
      2 C          -6.0938   -1.7961   -7.7504 C.3       1     ABL    0.0000
      3 C          -6.4797   -1.8061   -6.2627 C.3       1     ABL    0.0000
      4 C          -5.2464   -1.8804   -5.3478 C.3       1     ABL    0.0000
      5 C          -5.6351   -1.8943   -3.8605 C.3       1     ABL    0.0000
      6 C          -4.4042   -1.9739   -2.9428 C.3       1     ABL    0.0000
      7 C          -4.7984   -1.9967   -1.4571 C.3       1     ABL    0.0000
      8 C          -3.5757   -2.0861   -0.5418 C.3       1     ABL    0.0000
      9 O          -4.0200   -2.1034    0.7908 O.3       1     ABL    0.0000
     10 C          -3.0318   -2.2852    1.7837 C.3       1     ABL    0.0000
     11 C          -3.8030   -2.2025    3.1086 C.3       1     ABL    0.0000
     12 C          -2.3947   -3.6704    1.7205 C.3       1     ABL    0.0000
     13 O          -2.1620   -1.1733    1.7935 O.3       1     ABI    0.0000
     14 C          -0.9003   -1.2900    1.1891 C.3       1     ABI    0.0000
     15 C          -0.4661    0.1220    0.7557 C.3       1     ABI    0.0000
     16 C           0.1195    0.9005    1.9434 C.3       1     ABI    0.0000
     17 C           1.4772    0.3090    2.4065 C.3       1     ABI    0.0000
     18 C           1.5655    0.4053    3.9472 C.3       1     ABI    0.0000
     19 C           1.4583   -1.1672    2.0245 C.2       1     ABI    0.0000
     20 C           2.5230   -1.8125    1.5232 C.2       1     ABI    0.0000
     21 C           3.8467   -1.1696    1.2325 C.3       1     ABI    0.0000
     22 C           3.9865    0.2191    1.8691 C.3       1     ABI    0.0000
     23 C           5.1371    0.9953    1.2193 C.3       1     ABI    0.0000
     24 C           6.5067    0.3244    1.0907 C.3       1     ABI    0.0000
     25 C           7.3146    1.5541    0.7692 C.2       1     ABI    0.0000
     26 C           6.7447    2.7178    1.1431 C.2       1     ABI    0.0000
     27 C           7.3215    3.9315    0.9859 C.ar      1     ABI    0.0000
     28 C           6.8347    5.0570    1.5441 C.ar      1     ABI    0.0000
     29 C           7.4484    6.2356    1.3594 C.ar      1     ABI    0.0000
     30 C           8.5585    6.2599    0.6103 C.ar      1     ABI    0.0000
     31 N           9.0450    5.2230    0.0773 N.ar      1     ABI    0.0000
     32 C           8.4491    4.1209    0.2654 C.ar      1     ABI    0.0000
     33 C           5.4223    2.3824    1.8506 C.3       1     ABI    0.0000
     34 C           5.7267    2.3302    3.3635 C.3       1     ABI    0.0000
     35 C           4.1412    3.1839    1.5404 C.3       1     ABI    0.0000
     36 C           2.8826    2.5032    2.1213 C.3       1     ABI    0.0000
     37 C           2.6763    1.0252    1.7127 C.3       1     ABI    0.0000
     38 C           0.1282   -1.8729    2.1708 C.3       1     ABI    0.0000
     39 H          -7.0327   -1.7174   -9.7343 H         1     ABL    0.0000
     40 H          -7.9982   -2.5986   -8.4979 H         1     ABL    0.0000
     41 H          -7.9169   -0.7985   -8.4648 H         1     ABL    0.0000
     42 H          -5.4320   -0.9217   -7.9592 H         1     ABL    0.0000
     43 H          -5.5135   -2.7185   -7.9924 H         1     ABL    0.0000
     44 H          -7.1438   -2.6799   -6.0603 H         1     ABL    0.0000
     45 H          -7.0610   -0.8832   -6.0262 H         1     ABL    0.0000
     46 H          -4.5832   -1.0056   -5.5486 H         1     ABL    0.0000
     47 H          -4.6646   -2.8024   -5.5864 H         1     ABL    0.0000
     48 H          -6.3006   -2.7678   -3.6616 H         1     ABL    0.0000
     49 H          -6.2152   -0.9714   -3.6212 H         1     ABL    0.0000
     50 H          -3.7399   -1.0983   -3.1363 H         1     ABL    0.0000
     51 H          -3.8219   -2.8947   -3.1847 H         1     ABL    0.0000
     52 H          -5.4668   -2.8701   -1.2653 H         1     ABL    0.0000
     53 H          -5.3778   -1.0743   -1.2125 H         1     ABL    0.0000
     54 H          -2.9332   -1.1931   -0.7106 H         1     ABL    0.0000
     55 H          -3.0133   -3.0164   -0.7748 H         1     ABL    0.0000
     56 H          -3.1223   -2.3089    3.9842 H         1     ABL    0.0000
     57 H          -4.5774   -2.9996    3.1852 H         1     ABL    0.0000
     58 H          -4.3246   -1.2233    3.2144 H         1     ABL    0.0000
     59 H          -3.1842   -4.4557    1.6845 H         1     ABL    0.0000
     60 H          -1.7485   -3.8519    0.8369 H         1     ABL    0.0000
     61 H          -1.7897   -3.8820    2.6301 H         1     ABL    0.0000
     62 H          -0.9641   -1.8955    0.2573 H         1     ABI    0.0000
     63 H          -1.3320    0.6740    0.3183 H         1     ABI    0.0000
     64 H           0.2965    0.0644   -0.0570 H         1     ABI    0.0000
     65 H          -0.6306    0.8549    2.7678 H         1     ABI    0.0000
     66 H           0.2045    1.9794    1.6909 H         1     ABI    0.0000
     67 H           1.4508    1.4505    4.3081 H         1     ABI    0.0000
     68 H           0.7597   -0.1699    4.4536 H         1     ABI    0.0000
     69 H           2.5243    0.0062    4.3430 H         1     ABI    0.0000
     70 H           2.4263   -2.8721    1.2319 H         1     ABI    0.0000
     71 H           3.9325   -1.1007    0.1225 H         1     ABI    0.0000
     72 H           4.6653   -1.8349    1.5953 H         1     ABI    0.0000
     73 H           4.2171    0.0765    2.9492 H         1     ABI    0.0000
     74 H           4.8193    1.1698    0.1558 H         1     ABI    0.0000
     75 H           6.5373   -0.4208    0.2636 H         1     ABI    0.0000
     76 H           6.8551   -0.1441    2.0376 H         1     ABI    0.0000
     77 H           8.2980    1.4179    0.3012 H         1     ABI    0.0000
     78 H           5.9504    5.0660    2.1908 H         1     ABI    0.0000
     79 H           7.0595    7.1591    1.8188 H         1     ABI    0.0000
     80 H           9.0957    7.2072    0.4364 H         1     ABI    0.0000
     81 H           8.9600    3.2966   -0.2566 H         1     ABI    0.0000
     82 H           6.5980    1.6773    3.5925 H         1     ABI    0.0000
     83 H           5.9681    3.3410    3.7599 H         1     ABI    0.0000
     84 H           4.8836    1.9501    3.9764 H         1     ABI    0.0000
     85 H           4.1742    4.2120    1.9604 H         1     ABI    0.0000
     86 H           4.0232    3.3040    0.4379 H         1     ABI    0.0000
     87 H           2.0002    3.1148    1.8213 H         1     ABI    0.0000
     88 H           2.9368    2.5844    3.2286 H         1     ABI    0.0000
     89 H           2.4516    1.0400    0.6155 H         1     ABI    0.0000
     90 H           0.2509   -2.9648    1.9935 H         1     ABI    0.0000
     91 H          -0.2135   -1.7724    3.2252 H         1     ABI    0.0000
@<TRIPOS>BOND
     1     1     2     1
     2     1    39     1
     3     1    40     1
     4     1    41     1
     5     2     3     1
     6     2    42     1
     7     2    43     1
     8     3     4     1
     9     3    44     1
    10     3    45     1
    11     4     5     1
    12     4    46     1
    13     4    47     1
    14     5     6     1
    15     5    48     1
    16     5    49     1
    17     6     7     1
    18     6    50     1
    19     6    51     1
    20     7     8     1
    21     7    52     1
    22     7    53     1
    23     8     9     1
    24     8    54     1
    25     8    55     1
    26     9    10     1
    27    10    11     1
    28    10    12     1
    29    10    13     1
    30    11    56     1
    31    11    57     1
    32    11    58     1
    33    12    59     1
    34    12    60     1
    35    12    61     1
    36    13    14     1
    37    14    15     1
    38    14    38     1
    39    14    62     1
    40    15    16     1
    41    15    63     1
    42    15    64     1
    43    16    17     1
    44    16    65     1
    45    16    66     1
    46    17    18     1
    47    17    19     1
    48    17    37     1
    49    18    67     1
    50    18    68     1
    51    18    69     1
    52    19    20     2
    53    19    38     1
    54    20    21     1
    55    20    70     1
    56    21    22     1
    57    21    71     1
    58    21    72     1
    59    22    23     1
    60    22    37     1
    61    22    73     1
    62    23    24     1
    63    23    33     1
    64    23    74     1
    65    24    25     1
    66    24    75     1
    67    24    76     1
    68    25    26     2
    69    25    77     1
    70    26    27     1
    71    26    33     1
    72    27    28     2
    73    27    32     1
    74    28    29     1
    75    28    78     1
    76    29    30     2
    77    29    79     1
    78    30    31     1
    79    30    80     1
    80    31    32     2
    81    32    81     1
    82    33    34     1
    83    33    35     1
    84    34    82     1
    85    34    83     1
    86    34    84     1
    87    35    36     1
    88    35    85     1
    89    35    86     1
    90    36    37     1
    91    36    87     1
    92    36    88     1
    93    37    89     1
    94    38    90     1
    95    38    91     1
