# created with PyMOL 2.5.4
@<TRIPOS>MOLECULE
ABI
91 95 2                 
SMALL
USER_CHARGES
@<TRIPOS>ATOM
1	   N	9.045	5.223	0.077	N.2	1	ABI1	0.000	
2	   C	-0.900	-1.290	1.189	C.3	1	ABI1	0.000	
3	   C	-0.466	0.122	0.756	C.3	1	ABI1	0.000	
4	   C	0.119	0.900	1.943	C.3	1	ABI1	0.000	
5	   C	1.477	0.309	2.407	C.3	1	ABI1	0.000	
6	   C	1.566	0.405	3.947	C.3	1	ABI1	0.000	
7	   C	1.458	-1.167	2.024	C.2	1	ABI1	0.000	
8	   C	2.523	-1.812	1.523	C.2	1	ABI1	0.000	
9	   C	3.847	-1.170	1.232	C.3	1	ABI1	0.000	
10	   C	3.987	0.219	1.869	C.3	1	ABI1	0.000	
11	   C	5.137	0.995	1.219	C.3	1	ABI1	0.000	
12	   C	6.507	0.324	1.091	C.3	1	ABI1	0.000	
13	   C	7.315	1.554	0.769	C.2	1	ABI1	0.000	
14	   C	6.745	2.718	1.143	C.2	1	ABI1	0.000	
15	   C	7.321	3.931	0.986	C.2	1	ABI1	0.000	
16	   C	6.835	5.057	1.544	C.2	1	ABI1	0.000	
17	   C	7.448	6.236	1.359	C.2	1	ABI1	0.000	
18	   C	8.559	6.260	0.610	C.2	1	ABI1	0.000	
19	   C	8.449	4.121	0.265	C.2	1	ABI1	0.000	
20	   C	5.422	2.382	1.851	C.3	1	ABI1	0.000	
21	   C	5.727	2.330	3.364	C.3	1	ABI1	0.000	
22	   C	4.141	3.184	1.540	C.3	1	ABI1	0.000	
23	   C	2.883	2.503	2.121	C.3	1	ABI1	0.000	
24	   C	2.676	1.025	1.713	C.3	1	ABI1	0.000	
25	   C	0.128	-1.873	2.171	C.3	1	ABI1	0.000	
26	   O	-2.162	-1.173	1.793	O.3	1	ABI1	0.000	
27	   H	-0.964	-1.895	0.257	 H	1	ABI1	0.000	
28	   H	-1.332	0.674	0.318	 H	1	ABI1	0.000	
29	   H	0.296	0.064	-0.057	 H	1	ABI1	0.000	
30	   H	-0.631	0.855	2.768	 H	1	ABI1	0.000	
31	   H	0.205	1.979	1.691	 H	1	ABI1	0.000	
32	   H	1.451	1.451	4.308	 H	1	ABI1	0.000	
33	   H	0.760	-0.170	4.454	 H	1	ABI1	0.000	
34	   H	2.524	0.006	4.343	 H	1	ABI1	0.000	
35	   H	2.426	-2.872	1.232	 H	1	ABI1	0.000	
36	   H	3.932	-1.101	0.123	 H	1	ABI1	0.000	
37	   H	4.665	-1.835	1.595	 H	1	ABI1	0.000	
38	   H	4.217	0.076	2.949	 H	1	ABI1	0.000	
39	   H	4.819	1.170	0.156	 H	1	ABI1	0.000	
40	   H	6.537	-0.421	0.264	 H	1	ABI1	0.000	
41	   H	6.855	-0.144	2.038	 H	1	ABI1	0.000	
42	   H	8.298	1.418	0.301	 H	1	ABI1	0.000	
43	   H	5.950	5.066	2.191	 H	1	ABI1	0.000	
44	   H	7.060	7.159	1.819	 H	1	ABI1	0.000	
45	   H	9.096	7.207	0.436	 H	1	ABI1	0.000	
46	   H	8.960	3.297	-0.257	 H	1	ABI1	0.000	
47	   H	6.598	1.677	3.592	 H	1	ABI1	0.000	
48	   H	5.968	3.341	3.760	 H	1	ABI1	0.000	
49	   H	4.884	1.950	3.976	 H	1	ABI1	0.000	
50	   H	4.174	4.212	1.960	 H	1	ABI1	0.000	
51	   H	4.023	3.304	0.438	 H	1	ABI1	0.000	
52	   H	2.000	3.115	1.821	 H	1	ABI1	0.000	
53	   H	2.937	2.584	3.229	 H	1	ABI1	0.000	
54	   H	2.452	1.040	0.615	 H	1	ABI1	0.000	
55	   H	0.251	-2.965	1.993	 H	1	ABI1	0.000	
56	   H	-0.213	-1.772	3.225	 H	1	ABI1	0.000	
57	   C	-7.328	-1.724	-8.660	C.3	2	ABL1	0.000	
58	   C	-6.094	-1.796	-7.750	C.3	2	ABL1	0.000	
59	   C	-6.480	-1.806	-6.263	C.3	2	ABL1	0.000	
60	   C	-5.246	-1.880	-5.348	C.3	2	ABL1	0.000	
61	   C	-5.635	-1.894	-3.861	C.3	2	ABL1	0.000	
62	   C	-4.404	-1.974	-2.943	C.3	2	ABL1	0.000	
63	   C	-4.798	-1.997	-1.457	C.3	2	ABL1	0.000	
64	   C	-3.576	-2.086	-0.542	C.3	2	ABL1	0.000	
65	   C	-3.032	-2.285	1.784	C.3	2	ABL1	0.000	
66	   C	-3.803	-2.203	3.109	C.3	2	ABL1	0.000	
67	   C	-2.395	-3.670	1.720	C.3	2	ABL1	0.000	
68	   O	-4.020	-2.103	0.791	O.3	2	ABL1	0.000	
69	   H	-7.033	-1.717	-9.734	 H	2	ABL1	0.000	
70	   H	-7.998	-2.599	-8.498	 H	2	ABL1	0.000	
71	   H	-7.917	-0.799	-8.465	 H	2	ABL1	0.000	
72	   H	-5.432	-0.922	-7.959	 H	2	ABL1	0.000	
73	   H	-5.514	-2.718	-7.992	 H	2	ABL1	0.000	
74	   H	-7.144	-2.680	-6.060	 H	2	ABL1	0.000	
75	   H	-7.061	-0.883	-6.026	 H	2	ABL1	0.000	
76	   H	-4.583	-1.006	-5.549	 H	2	ABL1	0.000	
77	   H	-4.665	-2.802	-5.586	 H	2	ABL1	0.000	
78	   H	-6.301	-2.768	-3.662	 H	2	ABL1	0.000	
79	   H	-6.215	-0.971	-3.621	 H	2	ABL1	0.000	
80	   H	-3.740	-1.098	-3.136	 H	2	ABL1	0.000	
81	   H	-3.822	-2.895	-3.185	 H	2	ABL1	0.000	
82	   H	-5.467	-2.870	-1.265	 H	2	ABL1	0.000	
83	   H	-5.378	-1.074	-1.212	 H	2	ABL1	0.000	
84	   H	-2.933	-1.193	-0.711	 H	2	ABL1	0.000	
85	   H	-3.013	-3.016	-0.775	 H	2	ABL1	0.000	
86	   H	-3.122	-2.309	3.984	 H	2	ABL1	0.000	
87	   H	-4.577	-3.000	3.185	 H	2	ABL1	0.000	
88	   H	-4.325	-1.223	3.214	 H	2	ABL1	0.000	
89	   H	-3.184	-4.456	1.684	 H	2	ABL1	0.000	
90	   H	-1.748	-3.852	0.837	 H	2	ABL1	0.000	
91	   H	-1.790	-3.882	2.630	 H	2	ABL1	0.000	
@<TRIPOS>BOND
1 1 19 2
2 2 3 1
3 2 25 1
4 2 27 1
5 3 4 1
6 3 28 1
7 3 29 1
8 4 5 1
9 4 30 1
10 4 31 1
11 5 6 1
12 5 7 1
13 5 24 1
14 6 32 1
15 6 33 1
16 6 34 1
17 7 8 2
18 7 25 1
19 8 9 1
20 8 35 1
21 9 10 1
22 9 36 1
23 9 37 1
24 10 11 1
25 10 24 1
26 10 38 1
27 11 12 1
28 11 20 1
29 11 39 1
30 12 13 1
31 12 40 1
32 12 41 1
33 13 14 2
34 13 42 1
35 14 15 1
36 14 20 1
37 15 16 2
38 15 19 1
39 16 17 1
40 16 43 1
41 17 18 2
42 17 44 1
43 1 18 1
44 18 45 1
45 19 46 1
46 20 21 1
47 20 22 1
48 21 47 1
49 21 48 1
50 21 49 1
51 22 23 1
52 22 50 1
53 22 51 1
54 23 24 1
55 23 52 1
56 23 53 1
57 24 54 1
58 25 55 1
59 25 56 1
60 2 26 1
61 57 58 1
62 57 69 1
63 57 70 1
64 57 71 1
65 58 59 1
66 58 72 1
67 58 73 1
68 59 60 1
69 59 74 1
70 59 75 1
71 60 61 1
72 60 76 1
73 60 77 1
74 61 62 1
75 61 78 1
76 61 79 1
77 62 63 1
78 62 80 1
79 62 81 1
80 63 64 1
81 63 82 1
82 63 83 1
83 64 68 1
84 64 84 1
85 64 85 1
86 26 65 1
87 65 66 1
88 65 67 1
89 66 86 1
90 66 87 1
91 66 88 1
92 67 89 1
93 67 90 1
94 67 91 1
95 65 68 1
@<TRIPOS>SUBSTRUCTURE
1	ABI1	1	GROUP	1 ****	ABI
2	ABL1	57	GROUP	1 ****	ABL
