@<TRIPOS>MOLECULE
PTX 
177 183 0 0 0
SMALL
USER_CHARGES
#CGenFF output mol2 file
@<TRIPOS>ATOM
1	C1    -1.1790    12.5240    13.4360	C.3	1	PTX1    -0.2730
2	C2     0.0710    12.0150    12.7060	C.3	1	PTX1    -0.1770
3	C3    -0.2910    11.1200    11.5100	C.3	1	PTX1    -0.1810
4	C4     0.9580    10.6070    10.7760	C.3	1	PTX1    -0.1790
5	C5     0.5950     9.7130     9.5790	C.3	1	PTX1    -0.1800
6	C6     1.8440     9.2000     8.8430	C.3	1	PTX1    -0.1800
7	C7     1.4780     8.3090     7.6450	C.3	1	PTX1    -0.1800
8	C8     2.7250     7.7940     6.9070	C.3	1	PTX1    -0.1800
9	C9     2.3560     6.9060     5.7070	C.3	1	PTX1    -0.1800
10	C10     3.5990     6.3880     4.9660	C.3	1	PTX1    -0.1800
11	C11     3.2230     5.5030     3.7670	C.3	1	PTX1    -0.1800
12	C12     4.4620     4.9770     3.0230	C.3	1	PTX1    -0.1800
13	C13     4.0770     4.0920     1.8270	C.3	1	PTX1    -0.1800
14	C14     5.3100     3.5530     1.0820	C.3	1	PTX1    -0.1800
15	C15     4.9130     2.6650    -0.1080	C.3	1	PTX1    -0.1800
16	C16     6.1370     2.1060    -0.8500	C.3	1	PTX1    -0.1800
17	C17     5.7270     1.2050    -2.0260	C.3	1	PTX1    -0.1800
18	C18     6.9370     0.6160    -2.7530	C.3	1	PTX1     0.0360
19	C19     7.4270    -1.0840    -4.3670	C.3	1	PTX1     0.3910
20	C20     6.7190    -1.7430    -5.5520	C.3	1	PTX1    -0.2690
21	C21     8.6630    -0.3320    -4.8460	C.3	1	PTX1    -0.2690
22	O1     6.4710    -0.2150    -3.7890	O.3	1	PTX1    -0.4020
23	H1    -0.9020    13.1720    14.3000	H	1	PTX1     0.0900
24	H2    -1.8250    13.1250    12.7560	H	1	PTX1     0.0900
25	H3    -1.7880    11.6780    13.8290	H	1	PTX1     0.0900
26	H4     0.7060    11.4430    13.4230	H	1	PTX1     0.0900
27	H5     0.6700    12.8880    12.3520	H	1	PTX1     0.0900
28	H6    -0.9290    11.6960    10.7980	H	1	PTX1     0.0900
29	H7    -0.8920    10.2500    11.8690	H	1	PTX1     0.0900
30	H8     1.5950    10.0310    11.4880	H	1	PTX1     0.0900
31	H9     1.5600    11.4770    10.4180	H	1	PTX1     0.0900
32	H10    -0.0420    10.2900     8.8670	H	1	PTX1     0.0900
33	H11    -0.0060     8.8440     9.9360	H	1	PTX1     0.0900
34	H12     2.4800     8.6210     9.5540	H	1	PTX1     0.0900
35	H13     2.4460    10.0690     8.4870	H	1	PTX1     0.0900
36	H14     0.8420     8.8880     6.9340	H	1	PTX1     0.0900
37	H15     0.8750     7.4400     8.0010	H	1	PTX1     0.0900
38	H16     3.3610     7.2130     7.6160	H	1	PTX1     0.0900
39	H17     3.3290     8.6630     6.5510	H	1	PTX1     0.0900
40	H18     1.7200     7.4890     4.9990	H	1	PTX1     0.0900
41	H19     1.7500     6.0390     6.0630	H	1	PTX1     0.0900
42	H20     4.2340     5.8030     5.6740	H	1	PTX1     0.0900
43	H21     4.2060     7.2550     4.6100	H	1	PTX1     0.0900
44	H22     2.5900     6.0890     3.0600	H	1	PTX1     0.0900
45	H23     2.6130     4.6390     4.1240	H	1	PTX1     0.0900
46	H24     5.0950     4.3900     3.7300	H	1	PTX1     0.0900
47	H25     5.0730     5.8390     2.6650	H	1	PTX1     0.0900
48	H26     3.4470     4.6820     1.1190	H	1	PTX1     0.0900
49	H27     3.4610     3.2340     2.1870	H	1	PTX1     0.0900
50	H28     5.9400     2.9640     1.7900	H	1	PTX1     0.0900
51	H29     5.9260     4.4090     0.7170	H	1	PTX1     0.0900
52	H30     4.2880     3.2560    -0.8190	H	1	PTX1     0.0900
53	H31     4.2870     1.8160     0.2600	H	1	PTX1     0.0900
54	H32     6.7650     1.5190    -0.1370	H	1	PTX1     0.0900
55	H33     6.7610     2.9500    -1.2290	H	1	PTX1     0.0900
56	H34     5.1090     1.7910    -2.7490	H	1	PTX1     0.0900
57	H35     5.0900     0.3710    -1.6440	H	1	PTX1     0.0900
58	H36     7.5500     0.0360    -2.0270	H	1	PTX1     0.0900
59	H37     7.5470     1.4430    -3.1830	H	1	PTX1     0.0900
60	H38     7.3830    -2.4210    -6.1310	H	1	PTX1     0.0900
61	H39     6.3490    -0.9750    -6.2690	H	1	PTX1     0.0900
62	H40     5.8380    -2.3380    -5.2200	H	1	PTX1     0.0900
63	H41     8.3720     0.4900    -5.5390	H	1	PTX1     0.0900
64	H42     9.2490     0.1300    -4.0240	H	1	PTX1     0.0900
65	H43     9.3580    -0.9890    -5.4140	H	1	PTX1     0.0900
66	N     9.2760    -5.3350    -3.1950	N.pl3	1	PTX1    -0.4040
67	C22     8.7130    -2.9650    -3.5590	C.3	1	PTX1     0.1830
68	C23    10.0670    -2.4380    -3.0590	C.2	1	PTX1     0.8500
69	C24    12.4160    -2.8450    -3.3910	C.3	1	PTX1     0.2720
70	C25    12.8190    -2.6290    -1.9200	C.3	1	PTX1    -0.2120
71	C26    14.2570    -3.1010    -1.6410	C.3	1	PTX1     0.1860
72	C27    15.2340    -2.1120    -2.3320	C.3	1	PTX1     0.1330
73	C28    14.5680     0.2500    -2.3880	C.2	1	PTX1     0.4590
74	C29    14.4360     1.4360    -1.7180	C.2	1	PTX1     0.0860
75	C30    13.9360     2.5390    -2.3110	C.2	1	PTX1    -0.1100
76	C31    13.8180     3.6920    -1.6330	C.2	1	PTX1    -0.1140
77	C32    14.2000     3.7650    -0.3500	C.2	1	PTX1    -0.1150
78	C33    14.6990     2.6760     0.2520	C.2	1	PTX1    -0.1140
79	C34    14.8140     1.5240    -0.4280	C.2	1	PTX1    -0.1100
80	C35    16.7330    -2.5030    -2.3950	C.3	1	PTX1    -0.0740
81	C36    17.2360    -3.0560    -3.7790	C.3	1	PTX1     0.0810
82	C37    16.6350    -2.3620    -5.0240	C.3	1	PTX1    -0.2630
83	C38    16.8740    -4.5740    -3.8350	C.2	1	PTX1     0.2970
84	C39    15.5120    -5.1400    -4.3230	C.3	1	PTX1     0.4320
85	C40    16.1610    -5.9250    -6.5090	C.2	1	PTX1     0.8340
86	C41    15.9220    -5.6120    -7.9730	C.3	1	PTX1    -0.3110
87	C42    14.3320    -4.4870    -3.6060	C.2	1	PTX1    -0.1130
88	C43    13.3280    -3.7850    -4.1910	C.2	1	PTX1    -0.1530
89	C44    13.0470    -3.7260    -5.6800	C.3	1	PTX1    -0.2650
90	C45    14.3070    -4.5880    -2.0810	C.3	1	PTX1     0.0160
91	C46    13.0280    -5.4180    -1.7370	C.3	1	PTX1    -0.2690
92	C47    15.3620    -5.4650    -1.3520	C.3	1	PTX1    -0.2690
93	C48    18.7830    -2.9300    -3.9150	C.3	1	PTX1     0.1660
94	C49    19.5460    -2.9560    -2.5950	C.3	1	PTX1    -0.2010
95	C50    19.1510    -1.8210    -1.6670	C.3	1	PTX1     0.0150
96	C51    18.0090    -0.2250    -2.1730	C.3	1	PTX1    -0.1060
97	C52    17.6430    -1.5800    -1.5600	C.3	1	PTX1     0.3660
98	C53    17.7210    -0.8000     0.7680	C.2	1	PTX1     0.8850
99	C54    16.9710    -1.0990     2.0540	C.3	1	PTX1    -0.3130
100	C55     8.3100    -4.2810    -2.8540	C.3	1	PTX1     0.1270
101	C56     9.4250    -6.5810    -2.6440	C.2	1	PTX1     0.3410
102	C57     8.6120    -7.1410    -1.7000	C.2	1	PTX1    -0.1370
103	C58     9.1270    -8.0330    -0.8270	C.2	1	PTX1    -0.0240
104	C59     8.3740    -8.6010     0.1280	C.2	1	PTX1    -0.1090
105	C60     7.0730    -8.2990     0.2290	C.2	1	PTX1    -0.1150
106	C61     6.5350    -7.4360    -0.6430	C.2	1	PTX1    -0.1090
107	C62     7.2970    -6.8720    -1.5940	C.2	1	PTX1    -0.0240
108	C63     8.2080    -4.0390    -1.3580	C.2	1	PTX1    -0.0400
109	C64     9.2670    -4.1750    -0.5400	C.2	1	PTX1    -0.1060
110	C65     9.1630    -3.9510     0.7790	C.2	1	PTX1    -0.1150
111	C66     7.9870    -3.5800     1.3050	C.2	1	PTX1    -0.1150
112	C67     6.9220    -3.4330     0.5040	C.2	1	PTX1    -0.1150
113	C68     7.0360    -3.6600    -0.8130	C.2	1	PTX1    -0.1060
114	O2     7.6590    -2.0460    -3.3620	O.3	1	PTX1    -0.5060
115	O3    10.2190    -1.4620    -2.3590	O.co2	1	PTX1    -0.6230
116	O4    11.0670    -3.2150    -3.5610	O.3	1	PTX1    -0.4320
117	O5    14.4930    -3.0060    -0.2620	O.3	1	PTX1    -0.4600
118	O6    15.0850    -0.8490    -1.7350	O.3	1	PTX1    -0.3100
119	O7    14.2300     0.1630    -3.5530	O.co2	1	PTX1    -0.4960
120	O8    17.6870    -5.3820    -3.4340	O.2	1	PTX1    -0.5150
121	O9    15.4330    -5.0720    -5.7360	O.3	1	PTX1    -0.4270
122	O10    16.8920    -6.7960    -6.0980	O.co2	1	PTX1    -0.6250
123	O11    19.1420    -1.7470    -4.5970	O.3	1	PTX1    -0.6420
124	O12    19.3870    -0.5500    -2.2280	O.3	1	PTX1    -0.3430
125	O13    17.2150    -1.5750    -0.2300	O.3	1	PTX1    -0.4220
126	O14    18.6200     0.0040     0.6840	O.co2	1	PTX1    -0.6170
127	O15    10.4690    -7.1110    -2.9510	O.2	1	PTX1    -0.4580
128	H44     8.8090    -3.1830    -4.6470	H	1	PTX1     0.0900
129	H45    12.5320    -1.8560    -3.9020	H	1	PTX1     0.0900
130	H46    12.7070    -1.5600    -1.6290	H	1	PTX1     0.0900
131	H47    12.1160    -3.1400    -1.2260	H	1	PTX1     0.0900
132	H48    14.4200    -2.0830    -0.0000	H	1	PTX1     0.2920
133	H49    14.8980    -2.0310    -3.3750	H	1	PTX1     0.0900
134	H50    13.6060     2.5420    -3.3630	H	1	PTX1     0.1150
135	H51    13.4070     4.5860    -2.1320	H	1	PTX1     0.1150
136	H52    14.1040     4.7120     0.2060	H	1	PTX1     0.1150
137	H53    15.0150     2.7290     1.3070	H	1	PTX1     0.1150
138	H54    15.2310     0.6610     0.1170	H	1	PTX1     0.1150
139	H55    16.8320    -3.3760    -1.7190	H	1	PTX1     0.0900
140	H56    16.7050    -1.2540    -4.9640	H	1	PTX1     0.0900
141	H57    17.1440    -2.6940    -5.9570	H	1	PTX1     0.0900
142	H58    15.5650    -2.5720    -5.1980	H	1	PTX1     0.0900
143	H59    15.4390    -6.2190    -4.0490	H	1	PTX1     0.0900
144	H60    16.2280    -4.5660    -8.1990	H	1	PTX1     0.0900
145	H61    16.5130    -6.2950    -8.6240	H	1	PTX1     0.0900
146	H62    14.8440    -5.7390    -8.2250	H	1	PTX1     0.0900
147	H63    13.7480    -3.0520    -6.2180	H	1	PTX1     0.0900
148	H64    13.0470    -4.7390    -6.1380	H	1	PTX1     0.0900
149	H65    12.0270    -3.3420    -5.8970	H	1	PTX1     0.0900
150	H66    12.8040    -5.4050    -0.6460	H	1	PTX1     0.0900
151	H67    12.1060    -5.1030    -2.2610	H	1	PTX1     0.0900
152	H68    13.1350    -6.4840    -2.0420	H	1	PTX1     0.0900
153	H69    15.1420    -5.5280    -0.2620	H	1	PTX1     0.0900
154	H70    15.3750    -6.5130    -1.7290	H	1	PTX1     0.0900
155	H71    16.4150    -5.1490    -1.3860	H	1	PTX1     0.0900
156	H72    19.1740    -3.7430    -4.5740	H	1	PTX1     0.0900
157	H73    19.9290    -1.3590    -4.2100	H	1	PTX1     0.4000
158	H74    19.3660    -3.9180    -2.0620	H	1	PTX1     0.0900
159	H75    20.6440    -2.9040    -2.7880	H	1	PTX1     0.0900
160	H76    19.6860    -1.8960    -0.6930	H	1	PTX1     0.0900
161	H77    17.8300     0.6750    -1.5510	H	1	PTX1     0.0900
162	H78    17.6110    -0.0730    -3.1980	H	1	PTX1     0.0900
163	H79    15.8750    -0.9630     1.9110	H	1	PTX1     0.0900
164	H80    17.1660    -2.1470     2.3760	H	1	PTX1     0.0900
165	H81    17.2980    -0.4180     2.8710	H	1	PTX1     0.0900
166	H82     7.3290    -4.5630    -3.3030	H	1	PTX1     0.0900
167	H83    10.0200    -5.0990    -3.8530	H	1	PTX1     0.2740
168	H84    10.1940    -8.3150    -0.8430	H	1	PTX1     0.1150
169	H85     8.8250    -9.3160     0.8360	H	1	PTX1     0.1150
170	H86     6.4490    -8.7660     1.0100	H	1	PTX1     0.1150
171	H87     5.4580    -7.2010    -0.5850	H	1	PTX1     0.1150
172	H88     6.7730    -6.2180    -2.3010	H	1	PTX1     0.1150
173	H89    10.2450    -4.4760    -0.9430	H	1	PTX1     0.1150
174	H90    10.0460    -4.0710     1.4300	H	1	PTX1     0.1150
175	H91     7.8970    -3.3940     2.3880	H	1	PTX1     0.1150
176	H92     5.9510    -3.1250     0.9280	H	1	PTX1     0.1150
177	H93     6.1480    -3.5320    -1.4540	H	1	PTX1     0.1150
@<TRIPOS>BOND
1	1	2	1
2	1	23	1
3	1	24	1
4	1	25	1
5	2	3	1
6	2	26	1
7	2	27	1
8	3	4	1
9	3	28	1
10	3	29	1
11	4	5	1
12	4	30	1
13	4	31	1
14	5	6	1
15	5	32	1
16	5	33	1
17	6	7	1
18	6	34	1
19	6	35	1
20	7	8	1
21	7	36	1
22	7	37	1
23	8	9	1
24	8	38	1
25	8	39	1
26	9	10	1
27	9	40	1
28	9	41	1
29	10	11	1
30	10	42	1
31	10	43	1
32	11	12	1
33	11	44	1
34	11	45	1
35	12	13	1
36	12	46	1
37	12	47	1
38	13	14	1
39	13	48	1
40	13	49	1
41	14	15	1
42	14	50	1
43	14	51	1
44	15	16	1
45	15	52	1
46	15	53	1
47	16	17	1
48	16	54	1
49	16	55	1
50	17	18	1
51	17	56	1
52	17	57	1
53	18	22	1
54	18	58	1
55	18	59	1
56	19	20	1
57	19	21	1
58	19	114	1
59	20	60	1
60	20	61	1
61	20	62	1
62	21	63	1
63	21	64	1
64	21	65	1
65	19	22	1
66	66	101	1
67	66	167	1
68	67	68	1
69	67	100	1
70	67	128	1
71	68	115	2
72	68	116	1
73	69	70	1
74	69	88	1
75	69	129	1
76	70	71	1
77	70	130	1
78	70	131	1
79	71	72	1
80	71	90	1
81	71	117	1
82	72	80	1
83	72	118	1
84	72	133	1
85	73	74	1
86	73	119	2
87	74	75	1
88	74	79	2
89	75	76	2
90	75	134	1
91	76	77	1
92	76	135	1
93	77	78	2
94	77	136	1
95	78	79	1
96	78	137	1
97	79	138	1
98	80	81	1
99	80	97	1
100	80	139	1
101	81	82	1
102	81	83	1
103	81	93	1
104	82	140	1
105	82	141	1
106	82	142	1
107	83	84	1
108	83	120	2
109	84	87	1
110	84	121	1
111	84	143	1
112	85	86	1
113	85	122	2
114	86	144	1
115	86	145	1
116	86	146	1
117	87	88	2
118	87	90	1
119	88	89	1
120	89	147	1
121	89	148	1
122	89	149	1
123	90	91	1
124	90	92	1
125	91	150	1
126	91	151	1
127	91	152	1
128	92	153	1
129	92	154	1
130	92	155	1
131	93	94	1
132	93	123	1
133	93	156	1
134	94	95	1
135	94	158	1
136	94	159	1
137	95	97	1
138	95	124	1
139	95	160	1
140	96	97	1
141	96	161	1
142	96	162	1
143	97	125	1
144	98	99	1
145	98	126	2
146	99	163	1
147	99	164	1
148	99	165	1
149	66	100	1
150	100	108	1
151	100	166	1
152	101	102	1
153	101	127	2
154	102	103	1
155	102	107	2
156	103	104	2
157	103	168	1
158	104	105	1
159	104	169	1
160	105	106	2
161	105	170	1
162	106	107	1
163	106	171	1
164	107	172	1
165	108	109	1
166	108	113	2
167	109	110	2
168	109	173	1
169	110	111	1
170	110	174	1
171	111	112	2
172	111	175	1
173	112	113	1
174	112	176	1
175	113	177	1
176	67	114	1
177	69	116	1
178	117	132	1
179	73	118	1
180	85	121	1
181	123	157	1
182	96	124	1
183	98	125	1
