@<TRIPOS>MOLECULE
DTX
68 72 1 0 0
SMALL
USER_CHARGES


@<TRIPOS>ATOM
      1 C          -6.3781   -2.0415    0.9334 C.3       1     DTX    0.0000
      2 O          -5.1402   -1.5449    0.4782 O.3       1     DTX    0.0000
      3 C          -4.8730   -1.4293   -0.8700 C.ar      1     DTX    0.0000
      4 C          -5.8031   -1.7991   -1.7739 C.ar      1     DTX    0.0000
      5 C          -5.6040   -1.7119   -3.0904 C.ar      1     DTX    0.0000
      6 C          -4.4360   -1.2379   -3.5287 C.ar      1     DTX    0.0000
      7 C          -3.4709   -0.8519   -2.6689 C.ar      1     DTX    0.0000
      8 C          -2.3008   -0.3744   -3.1838 C.2       1     DTX    0.0000
      9 O          -2.1682   -0.3304   -4.3914 O.2       1     DTX    0.0000
     10 C          -1.3105    0.0320   -2.3328 C.ar      1     DTX    0.0000
     11 C          -0.1477    0.5316   -2.8258 C.ar      1     DTX    0.0000
     12 O           0.1149    0.7169   -4.1567 O.3       1     DTX    0.0000
     13 C           0.8248    0.9251   -1.9784 C.ar      1     DTX    0.0000
     14 C           2.0788    1.5619   -2.5588 C.3       1     DTX    0.0000
     15 C           2.8039    2.4734   -1.5723 C.3       1     DTX    0.0000
     16 O           4.0227    2.8733   -2.1615 O.3       1     DTX    0.0000
     17 C           1.9933    3.7221   -1.1982 C.2       1     DTX    0.0000
     18 O           0.8566    3.8929   -1.5792 O.2       1     DTX    0.0000
     19 C           2.6640    4.7737   -0.3204 C.3       1     DTX    0.0000
     20 O           2.5708    4.4149    1.0512 O.3       1     DTX    0.0000
     21 C           3.1036    1.6133   -0.3568 C.3       1     DTX    0.0000
     22 C           1.8115    1.1530    0.3184 C.3       1     DTX    0.0000
     23 O           2.0933    0.0430    1.1502 O.3       1     DTX    0.0000
     24 C           2.8956    0.3137    2.2808 C.3       1     DTX    0.0000
     25 C           2.4449   -0.5217    3.4696 C.3       1     DTX    0.0000
     26 C           2.7193   -2.0078    3.2271 C.3       1     DTX    0.0000
     27 N           2.4012   -2.8077    4.4214 N.3       1     DTX    0.0000
     28 C           4.1941   -2.1646    2.8797 C.3       1     DTX    0.0000
     29 O           4.4536   -3.5191    2.5977 O.3       1     DTX    0.0000
     30 C           4.5364   -1.2933    1.6812 C.3       1     DTX    0.0000
     31 C           6.0203   -1.3808    1.3187 C.3       1     DTX    0.0000
     32 O           4.2422    0.0526    1.9462 O.3       1     DTX    0.0000
     33 C           0.6795    0.7804   -0.6503 C.ar      1     DTX    0.0000
     34 C          -0.4917    0.3164   -0.1613 C.ar      1     DTX    0.0000
     35 O          -0.6064    0.2645    1.1996 O.3       1     DTX    0.0000
     36 C          -1.4957   -0.0653   -0.9969 C.ar      1     DTX    0.0000
     37 C          -2.6787   -0.5499   -0.4889 C.2       1     DTX    0.0000
     38 O          -2.8475   -0.6357    0.7131 O.2       1     DTX    0.0000
     39 C          -3.6816   -0.9451   -1.3389 C.ar      1     DTX    0.0000
     40 H          -6.3516   -2.0367    2.0464 H         1     DTX    0.0000
     41 H          -7.2100   -1.3757    0.6121 H         1     DTX    0.0000
     42 H          -6.5237   -3.0944    0.6036 H         1     DTX    0.0000
     43 H          -6.7851   -2.1970   -1.4752 H         1     DTX    0.0000
     44 H          -6.3887   -2.0245   -3.8005 H         1     DTX    0.0000
     45 H          -4.3427   -1.1929   -4.6263 H         1     DTX    0.0000
     46 H          -0.6610    0.8422   -4.7157 H         1     DTX    0.0000
     47 H           2.7485    0.7375   -2.9008 H         1     DTX    0.0000
     48 H           1.8665    2.1939   -3.4518 H         1     DTX    0.0000
     49 H           4.4541    2.1322   -2.5899 H         1     DTX    0.0000
     50 H           3.7380    4.8972   -0.5749 H         1     DTX    0.0000
     51 H           2.1593    5.7583   -0.4350 H         1     DTX    0.0000
     52 H           2.8033    5.1579    1.6106 H         1     DTX    0.0000
     53 H           3.6883    0.7250   -0.6963 H         1     DTX    0.0000
     54 H           3.7604    2.1653    0.3530 H         1     DTX    0.0000
     55 H           1.4037    1.9865    0.9390 H         1     DTX    0.0000
     56 H           2.8168    1.3900    2.5593 H         1     DTX    0.0000
     57 H           1.3588   -0.3577    3.6651 H         1     DTX    0.0000
     58 H           2.9946   -0.1895    4.3826 H         1     DTX    0.0000
     59 H           2.0872   -2.3799    2.3851 H         1     DTX    0.0000
     60 H           2.6468   -3.7986    4.2493 H         1     DTX    0.0000
     61 H           2.9890   -2.5197    5.2229 H         1     DTX    0.0000
     62 H           4.8300   -1.8892    3.7524 H         1     DTX    0.0000
     63 H           5.4013   -3.6692    2.5786 H         1     DTX    0.0000
     64 H           3.9527   -1.6276    0.7906 H         1     DTX    0.0000
     65 H           6.6630   -1.0638    2.1714 H         1     DTX    0.0000
     66 H           6.2584   -0.7219    0.4519 H         1     DTX    0.0000
     67 H           6.3130   -2.4174    1.0359 H         1     DTX    0.0000
     68 H           0.1679    0.6387    1.6417 H         1     DTX    0.0000
@<TRIPOS>BOND
     1     1     2     1
     2     1    40     1
     3     1    41     1
     4     1    42     1
     5     2     3     1
     6     3     4     2
     7     3    39     1
     8     4     5     1
     9     4    43     1
    10     5     6     2
    11     5    44     1
    12     6     7     1
    13     6    45     1
    14     7     8     1
    15     7    39     2
    16     8     9     2
    17     8    10     1
    18    10    11     2
    19    10    36     1
    20    11    12     1
    21    11    13     1
    22    12    46     1
    23    13    14     1
    24    13    33     2
    25    14    15     1
    26    14    47     1
    27    14    48     1
    28    15    16     1
    29    15    17     1
    30    15    21     1
    31    16    49     1
    32    17    18     2
    33    17    19     1
    34    19    20     1
    35    19    50     1
    36    19    51     1
    37    20    52     1
    38    21    22     1
    39    21    53     1
    40    21    54     1
    41    22    23     1
    42    22    33     1
    43    22    55     1
    44    23    24     1
    45    24    25     1
    46    24    32     1
    47    24    56     1
    48    25    26     1
    49    25    57     1
    50    25    58     1
    51    26    27     1
    52    26    28     1
    53    26    59     1
    54    27    60     1
    55    27    61     1
    56    28    29     1
    57    28    30     1
    58    28    62     1
    59    29    63     1
    60    30    31     1
    61    30    32     1
    62    30    64     1
    63    31    65     1
    64    31    66     1
    65    31    67     1
    66    33    34     1
    67    34    35     1
    68    34    36     2
    69    35    68     1
    70    36    37     1
    71    37    38     2
    72    37    39     1
