@<TRIPOS>MOLECULE
CTX
144 149 1 0 0
SMALL
USER_CHARGES


@<TRIPOS>ATOM
      1 C           0.0427    3.1560    8.0087 C.3       1     CTL    0.0000
      2 C           0.8455    3.0270    6.7073 C.3       1     CTL    0.0000
      3 C          -0.0637    2.7432    5.5012 C.3       1     CTL    0.0000
      4 C           0.7362    2.6091    4.1952 C.3       1     CTL    0.0000
      5 C          -0.1761    2.3181    2.9927 C.3       1     CTL    0.0000
      6 C           0.6196    2.1679    1.6951 C.3       1     CTL    0.0000
      7 O          -0.2821    1.8889    0.6509 O.3       1     CTL    0.0000
      8 C           0.2961    1.4522   -0.5654 C.3       1     CTL    0.0000
      9 C          -0.8675    1.3695   -1.5527 C.3       1     CTL    0.0000
     10 C           1.3665    2.4147   -1.0663 C.3       1     CTL    0.0000
     11 O           0.8188    0.1817   -0.2505 O.3       1     CTX    0.0000
     12 C           1.2428   -0.6387   -1.3156 C.3       1     CTX    0.0000
     13 C           2.7164   -1.0311   -1.1237 C.2       1     CTX    0.0000
     14 O           3.1125   -2.1731   -1.0745 O.2       1     CTX    0.0000
     15 O           3.4757    0.0976   -1.0558 O.3       1     CTX    0.0000
     16 C           4.8797    0.0866   -0.9278 C.3       1     CTX    0.0000
     17 C           5.3131    0.6631    0.4339 C.3       1     CTX    0.0000
     18 C           6.6577    0.0674    0.9016 C.3       1     CTX    0.0000
     19 O           6.9020    0.4990    2.2131 O.3       1     CTX    0.0000
     20 C           7.7846    0.6662    0.0187 C.3       1     CTX    0.0000
     21 O           7.8516    2.0471    0.2724 O.3       1     CTX    0.0000
     22 C           7.5750    3.0154   -0.6681 C.2       1     CTX    0.0000
     23 O           7.1988    2.6949   -1.7788 O.2       1     CTX    0.0000
     24 C           7.7342    4.3367   -0.3482 C.ar      1     CTX    0.0000
     25 C           7.4868    5.3209   -1.2353 C.ar      1     CTX    0.0000
     26 C           7.6529    6.6103   -0.8988 C.ar      1     CTX    0.0000
     27 C           8.0698    6.9401    0.3321 C.ar      1     CTX    0.0000
     28 C           8.3179    5.9714    1.2250 C.ar      1     CTX    0.0000
     29 C           8.1498    4.6836    0.8859 C.ar      1     CTX    0.0000
     30 C           9.1947    0.0307    0.1249 C.3       1     CTX    0.0000
     31 C           9.6184   -0.9287   -1.0498 C.3       1     CTX    0.0000
     32 C           9.1107   -0.5043   -2.4483 C.3       1     CTX    0.0000
     33 C           9.0190   -2.3424   -0.7539 C.2       1     CTX    0.0000
     34 O           9.7089   -3.1836   -0.2155 O.2       1     CTX    0.0000
     35 C           7.5699   -2.7894   -1.0804 C.3       1     CTX    0.0000
     36 O           7.4632   -3.1706   -2.4427 O.3       1     CTX    0.0000
     37 C           8.2891   -4.2559   -2.8047 C.3       1     CTX    0.0000
     38 C           6.4992   -1.8069   -0.6126 C.2       1     CTX    0.0000
     39 C           5.6262   -1.1513   -1.4176 C.2       1     CTX    0.0000
     40 C           5.3967   -1.4170   -2.8942 C.3       1     CTX    0.0000
     41 C           6.4755   -1.4757    0.8841 C.3       1     CTX    0.0000
     42 C           5.1017   -1.9489    1.4587 C.3       1     CTX    0.0000
     43 C           7.4019   -2.2880    1.8362 C.3       1     CTX    0.0000
     44 C          11.1755   -1.0705   -1.1683 C.3       1     CTX    0.0000
     45 O          11.6729   -0.1908   -2.1470 O.3       1     CTX    0.0000
     46 C          13.0370   -0.3551   -2.4720 C.3       1     CTX    0.0000
     47 C          11.8844   -0.8940    0.1770 C.3       1     CTX    0.0000
     48 C          11.6773    0.4671    0.8192 C.3       1     CTX    0.0000
     49 O          12.1473    1.5429    0.0404 O.3       1     CTX    0.0000
     50 C          10.8370    2.0610   -0.1079 C.3       1     CTX    0.0000
     51 C          10.2324    0.9670    0.7753 C.3       1     CTX    0.0000
     52 O           9.7851    1.3542    2.0416 O.3       1     CTX    0.0000
     53 C          10.3853    2.2597    2.8612 C.2       1     CTX    0.0000
     54 C           9.5647    2.3927    4.1316 C.3       1     CTX    0.0000
     55 O          11.4013    2.8794    2.6488 O.2       1     CTX    0.0000
     56 C           0.3078   -1.8597   -1.4507 C.3       1     CTX    0.0000
     57 N           0.9183   -2.8328   -2.3624 N.am      1     CTX    0.0000
     58 C           0.8718   -2.7140   -3.7231 C.2       1     CTX    0.0000
     59 O           0.2807   -1.8137   -4.2655 O.2       1     CTX    0.0000
     60 C           1.6149   -3.8090   -4.4968 C.3       1     CTX    0.0000
     61 C           2.4215   -3.1472   -5.6325 C.3       1     CTX    0.0000
     62 C           2.5834   -4.6169   -3.6103 C.3       1     CTX    0.0000
     63 C           0.5535   -4.7549   -5.0890 C.3       1     CTX    0.0000
     64 C           0.0069   -2.5286   -0.1147 C.ar      1     CTX    0.0000
     65 C           0.6932   -3.5923    0.3463 C.ar      1     CTX    0.0000
     66 C           0.4059   -4.1504    1.5329 C.ar      1     CTX    0.0000
     67 C          -0.5851   -3.6576    2.2894 C.ar      1     CTX    0.0000
     68 C          -1.2879   -2.6062    1.8452 C.ar      1     CTX    0.0000
     69 C          -0.9923   -2.0576    0.6570 C.ar      1     CTX    0.0000
     70 H           0.7142    3.3609    8.8741 H         1     CTL    0.0000
     71 H          -0.6932    3.9899    7.9461 H         1     CTL    0.0000
     72 H          -0.5179    2.2190    8.2297 H         1     CTL    0.0000
     73 H           1.5907    2.2030    6.8160 H         1     CTL    0.0000
     74 H           1.4156    3.9706    6.5320 H         1     CTL    0.0000
     75 H          -0.8071    3.5689    5.3967 H         1     CTL    0.0000
     76 H          -0.6341    1.8015    5.6838 H         1     CTL    0.0000
     77 H           1.4812    1.7849    4.3019 H         1     CTL    0.0000
     78 H           1.3045    3.5512    4.0092 H         1     CTL    0.0000
     79 H          -0.9189    3.1435    2.8789 H         1     CTL    0.0000
     80 H          -0.7481    1.3783    3.1833 H         1     CTL    0.0000
     81 H           1.3545    1.3402    1.8115 H         1     CTL    0.0000
     82 H           1.1567    3.1194    1.4802 H         1     CTL    0.0000
     83 H          -0.5603    1.0801   -2.5809 H         1     CTL    0.0000
     84 H          -1.3655    2.3615   -1.6493 H         1     CTL    0.0000
     85 H          -1.6444    0.6491   -1.2119 H         1     CTL    0.0000
     86 H           0.9766    3.4573   -1.0998 H         1     CTL    0.0000
     87 H           2.2807    2.4114   -0.4325 H         1     CTL    0.0000
     88 H           1.6960    2.1650   -2.0992 H         1     CTL    0.0000
     89 H           1.2456   -0.0820   -2.2789 H         1     CTX    0.0000
     90 H           5.2204    0.8595   -1.6670 H         1     CTX    0.0000
     91 H           5.3497    1.7754    0.3858 H         1     CTX    0.0000
     92 H           4.5307    0.5074    1.2092 H         1     CTX    0.0000
     93 H           7.0667    1.4471    2.2000 H         1     CTX    0.0000
     94 H           7.4610    0.5307   -1.0225 H         1     CTX    0.0000
     95 H           7.1434    5.1136   -2.2623 H         1     CTX    0.0000
     96 H           7.4473    7.4046   -1.6364 H         1     CTX    0.0000
     97 H           8.2068    7.9989    0.6080 H         1     CTX    0.0000
     98 H           8.6603    6.2353    2.2400 H         1     CTX    0.0000
     99 H           8.3664    3.9304    1.6603 H         1     CTX    0.0000
    100 H           9.1308   -0.6543    0.9942 H         1     CTX    0.0000
    101 H           9.3664    0.5538   -2.6799 H         1     CTX    0.0000
    102 H           9.5304   -1.1546   -3.2494 H         1     CTX    0.0000
    103 H           8.0192   -0.5848   -2.5844 H         1     CTX    0.0000
    104 H           7.3419   -3.7112   -0.4919 H         1     CTX    0.0000
    105 H           8.0523   -4.5237   -3.8587 H         1     CTX    0.0000
    106 H           9.3613   -3.9664   -2.7552 H         1     CTX    0.0000
    107 H           8.0836   -5.1383   -2.1597 H         1     CTX    0.0000
    108 H           6.1817   -0.9636   -3.5353 H         1     CTX    0.0000
    109 H           5.2932   -2.4988   -3.1200 H         1     CTX    0.0000
    110 H           4.4354   -0.9814   -3.2448 H         1     CTX    0.0000
    111 H           4.9856   -1.6725    2.5314 H         1     CTX    0.0000
    112 H           4.2003   -1.5552    0.9593 H         1     CTX    0.0000
    113 H           4.9798   -3.0532    1.3769 H         1     CTX    0.0000
    114 H           7.2795   -1.9617    2.8937 H         1     CTX    0.0000
    115 H           7.1719   -3.3769    1.8179 H         1     CTX    0.0000
    116 H           8.4882   -2.2546    1.6697 H         1     CTX    0.0000
    117 H          11.4027   -2.0909   -1.5648 H         1     CTX    0.0000
    118 H          13.2481    0.2761   -3.3641 H         1     CTX    0.0000
    119 H          13.6924    0.0003   -1.6495 H         1     CTX    0.0000
    120 H          13.2579   -1.4139   -2.7303 H         1     CTX    0.0000
    121 H          11.4950   -1.6527    0.8958 H         1     CTX    0.0000
    122 H          12.9731   -1.1138    0.1040 H         1     CTX    0.0000
    123 H          12.1545    0.5114    1.8242 H         1     CTX    0.0000
    124 H          10.7711    3.1035    0.2633 H         1     CTX    0.0000
    125 H          10.5202    2.0024   -1.1703 H         1     CTX    0.0000
    126 H           8.5182    2.6896    3.8927 H         1     CTX    0.0000
    127 H           9.5493    1.4254    4.6830 H         1     CTX    0.0000
    128 H           9.9969    3.1684    4.8030 H         1     CTX    0.0000
    129 H          -0.6721   -1.5384   -1.8785 H         1     CTX    0.0000
    130 H           1.5611   -3.5016   -1.9411 H         1     CTX    0.0000
    131 H           2.9881   -3.9056   -6.2188 H         1     CTX    0.0000
    132 H           1.7689   -2.6045   -6.3527 H         1     CTX    0.0000
    133 H           3.1588   -2.4182   -5.2249 H         1     CTX    0.0000
    134 H           3.1375   -5.3737   -4.2103 H         1     CTX    0.0000
    135 H           2.0513   -5.1769   -2.8086 H         1     CTX    0.0000
    136 H           3.3441   -3.9604   -3.1320 H         1     CTX    0.0000
    137 H          -0.1479   -4.2142   -5.7644 H         1     CTX    0.0000
    138 H           1.0271   -5.5688   -5.6833 H         1     CTX    0.0000
    139 H          -0.0529   -5.2322   -4.2857 H         1     CTX    0.0000
    140 H           1.5142   -4.0439   -0.2299 H         1     CTX    0.0000
    141 H           0.9854   -5.0188    1.8895 H         1     CTX    0.0000
    142 H          -0.8223   -4.1144    3.2645 H         1     CTX    0.0000
    143 H          -2.1082   -2.1940    2.4566 H         1     CTX    0.0000
    144 H          -1.5908   -1.1954    0.3199 H         1     CTX    0.0000
@<TRIPOS>BOND
     1     1     2     1
     2     1    70     1
     3     1    71     1
     4     1    72     1
     5     2     3     1
     6     2    73     1
     7     2    74     1
     8     3     4     1
     9     3    75     1
    10     3    76     1
    11     4     5     1
    12     4    77     1
    13     4    78     1
    14     5     6     1
    15     5    79     1
    16     5    80     1
    17     6     7     1
    18     6    81     1
    19     6    82     1
    20     7     8     1
    21     8     9     1
    22     8    10     1
    23     8    11     1
    24     9    83     1
    25     9    84     1
    26     9    85     1
    27    10    86     1
    28    10    87     1
    29    10    88     1
    30    11    12     1
    31    12    13     1
    32    12    56     1
    33    12    89     1
    34    13    14     2
    35    13    15     1
    36    15    16     1
    37    16    17     1
    38    16    39     1
    39    16    90     1
    40    17    18     1
    41    17    91     1
    42    17    92     1
    43    18    19     1
    44    18    20     1
    45    18    41     1
    46    19    93     1
    47    20    21     1
    48    20    30     1
    49    20    94     1
    50    21    22     1
    51    22    23     2
    52    22    24     1
    53    24    25     1
    54    24    29     2
    55    25    26     2
    56    25    95     1
    57    26    27     1
    58    26    96     1
    59    27    28     2
    60    27    97     1
    61    28    29     1
    62    28    98     1
    63    29    99     1
    64    30    31     1
    65    30    51     1
    66    30   100     1
    67    31    32     1
    68    31    33     1
    69    31    44     1
    70    32   101     1
    71    32   102     1
    72    32   103     1
    73    33    34     2
    74    33    35     1
    75    35    36     1
    76    35    38     1
    77    35   104     1
    78    36    37     1
    79    37   105     1
    80    37   106     1
    81    37   107     1
    82    38    39     2
    83    38    41     1
    84    39    40     1
    85    40   108     1
    86    40   109     1
    87    40   110     1
    88    41    42     1
    89    41    43     1
    90    42   111     1
    91    42   112     1
    92    42   113     1
    93    43   114     1
    94    43   115     1
    95    43   116     1
    96    44    45     1
    97    44    47     1
    98    44   117     1
    99    45    46     1
   100    46   118     1
   101    46   119     1
   102    46   120     1
   103    47    48     1
   104    47   121     1
   105    47   122     1
   106    48    49     1
   107    48    51     1
   108    48   123     1
   109    49    50     1
   110    50    51     1
   111    50   124     1
   112    50   125     1
   113    51    52     1
   114    52    53     1
   115    53    54     1
   116    53    55     2
   117    54   126     1
   118    54   127     1
   119    54   128     1
   120    56    57     1
   121    56    64     1
   122    56   129     1
   123    57    58     1
   124    57   130     1
   125    58    59     2
   126    58    60     1
   127    60    61     1
   128    60    62     1
   129    60    63     1
   130    61   131     1
   131    61   132     1
   132    61   133     1
   133    62   134     1
   134    62   135     1
   135    62   136     1
   136    63   137     1
   137    63   138     1
   138    63   139     1
   139    64    65     1
   140    64    69     2
   141    65    66     2
   142    65   140     1
   143    66    67     1
   144    66   141     1
   145    67    68     2
   146    67   142     1
   147    68    69     1
   148    68   143     1
   149    69   144     1
