# created with PyMOL 2.5.4
@<TRIPOS>MOLECULE
CTX
144 149 2               
SMALL
USER_CHARGES
@<TRIPOS>ATOM
1	   C	0.043	3.156	8.009	C.3	1	CTL1	0.000	
2	   C	0.845	3.027	6.707	C.3	1	CTL1	0.000	
3	   C	-0.064	2.743	5.501	C.3	1	CTL1	0.000	
4	   C	0.736	2.609	4.195	C.3	1	CTL1	0.000	
5	   C	-0.176	2.318	2.993	C.3	1	CTL1	0.000	
6	   C	0.620	2.168	1.695	C.3	1	CTL1	0.000	
7	   C	0.296	1.452	-0.565	C.3	1	CTL1	0.000	
8	   C	-0.868	1.370	-1.553	C.3	1	CTL1	0.000	
9	   C	1.367	2.415	-1.066	C.3	1	CTL1	0.000	
10	   O	-0.282	1.889	0.651	O.3	1	CTL1	0.000	
11	   H	0.714	3.361	8.874	 H	1	CTL1	0.000	
12	   H	-0.693	3.990	7.946	 H	1	CTL1	0.000	
13	   H	-0.518	2.219	8.230	 H	1	CTL1	0.000	
14	   H	1.591	2.203	6.816	 H	1	CTL1	0.000	
15	   H	1.416	3.971	6.532	 H	1	CTL1	0.000	
16	   H	-0.807	3.569	5.397	 H	1	CTL1	0.000	
17	   H	-0.634	1.801	5.684	 H	1	CTL1	0.000	
18	   H	1.481	1.785	4.302	 H	1	CTL1	0.000	
19	   H	1.304	3.551	4.009	 H	1	CTL1	0.000	
20	   H	-0.919	3.144	2.879	 H	1	CTL1	0.000	
21	   H	-0.748	1.378	3.183	 H	1	CTL1	0.000	
22	   H	1.355	1.340	1.811	 H	1	CTL1	0.000	
23	   H	1.157	3.119	1.480	 H	1	CTL1	0.000	
24	   H	-0.560	1.080	-2.581	 H	1	CTL1	0.000	
25	   H	-1.365	2.362	-1.649	 H	1	CTL1	0.000	
26	   H	-1.644	0.649	-1.212	 H	1	CTL1	0.000	
27	   H	0.977	3.457	-1.100	 H	1	CTL1	0.000	
28	   H	2.281	2.411	-0.433	 H	1	CTL1	0.000	
29	   H	1.696	2.165	-2.099	 H	1	CTL1	0.000	
30	   N	0.918	-2.833	-2.362	N.pl3	2	CTX1	0.000	
31	   C	1.243	-0.639	-1.316	C.3	2	CTX1	0.000	
32	   C	2.716	-1.031	-1.124	C.2	2	CTX1	0.000	
33	   C	4.880	0.087	-0.928	C.3	2	CTX1	0.000	
34	   C	5.313	0.663	0.434	C.3	2	CTX1	0.000	
35	   C	6.658	0.067	0.902	C.3	2	CTX1	0.000	
36	   C	7.785	0.666	0.019	C.3	2	CTX1	0.000	
37	   C	7.575	3.015	-0.668	C.2	2	CTX1	0.000	
38	   C	7.734	4.337	-0.348	C.2	2	CTX1	0.000	
39	   C	7.487	5.321	-1.235	C.2	2	CTX1	0.000	
40	   C	7.653	6.610	-0.899	C.2	2	CTX1	0.000	
41	   C	8.070	6.940	0.332	C.2	2	CTX1	0.000	
42	   C	8.318	5.971	1.225	C.2	2	CTX1	0.000	
43	   C	8.150	4.684	0.886	C.2	2	CTX1	0.000	
44	   C	9.195	0.031	0.125	C.3	2	CTX1	0.000	
45	   C	9.618	-0.929	-1.050	C.3	2	CTX1	0.000	
46	   C	9.111	-0.504	-2.448	C.3	2	CTX1	0.000	
47	   C	9.019	-2.342	-0.754	C.2	2	CTX1	0.000	
48	   C	7.570	-2.789	-1.080	C.3	2	CTX1	0.000	
49	   C	8.289	-4.256	-2.805	C.3	2	CTX1	0.000	
50	   C	6.499	-1.807	-0.613	C.2	2	CTX1	0.000	
51	   C	5.626	-1.151	-1.418	C.2	2	CTX1	0.000	
52	   C	5.397	-1.417	-2.894	C.3	2	CTX1	0.000	
53	   C	6.476	-1.476	0.884	C.3	2	CTX1	0.000	
54	   C	5.102	-1.949	1.459	C.3	2	CTX1	0.000	
55	   C	7.402	-2.288	1.836	C.3	2	CTX1	0.000	
56	   C	11.175	-1.071	-1.168	C.3	2	CTX1	0.000	
57	   C	13.037	-0.355	-2.472	C.3	2	CTX1	0.000	
58	   C	11.884	-0.894	0.177	C.3	2	CTX1	0.000	
59	   C	11.677	0.467	0.819	C.3	2	CTX1	0.000	
60	   C	10.837	2.061	-0.108	C.3	2	CTX1	0.000	
61	   C	10.232	0.967	0.775	C.3	2	CTX1	0.000	
62	   C	10.385	2.260	2.861	C.2	2	CTX1	0.000	
63	   C	9.565	2.393	4.132	C.3	2	CTX1	0.000	
64	   C	0.308	-1.860	-1.451	C.3	2	CTX1	0.000	
65	   C	0.872	-2.714	-3.723	C.2	2	CTX1	0.000	
66	   C	1.615	-3.809	-4.497	C.3	2	CTX1	0.000	
67	   C	2.421	-3.147	-5.633	C.3	2	CTX1	0.000	
68	   C	2.583	-4.617	-3.610	C.3	2	CTX1	0.000	
69	   C	0.553	-4.755	-5.089	C.3	2	CTX1	0.000	
70	   C	0.007	-2.529	-0.115	C.2	2	CTX1	0.000	
71	   C	0.693	-3.592	0.346	C.2	2	CTX1	0.000	
72	   C	0.406	-4.150	1.533	C.2	2	CTX1	0.000	
73	   C	-0.585	-3.658	2.289	C.2	2	CTX1	0.000	
74	   C	-1.288	-2.606	1.845	C.2	2	CTX1	0.000	
75	   C	-0.992	-2.058	0.657	C.2	2	CTX1	0.000	
76	   O	0.819	0.182	-0.250	O.3	2	CTX1	0.000	
77	   O	3.112	-2.173	-1.074	O.co2	2	CTX1	0.000	
78	   O	3.476	0.098	-1.056	O.3	2	CTX1	0.000	
79	   O	6.902	0.499	2.213	O.3	2	CTX1	0.000	
80	   O	7.852	2.047	0.272	O.3	2	CTX1	0.000	
81	   O	7.199	2.695	-1.779	O.co2	2	CTX1	0.000	
82	   O	9.709	-3.184	-0.215	O.2	2	CTX1	0.000	
83	   O	7.463	-3.171	-2.443	O.3	2	CTX1	0.000	
84	   O	11.673	-0.191	-2.147	O.3	2	CTX1	0.000	
85	   O	12.147	1.543	0.040	O.3	2	CTX1	0.000	
86	   O	9.785	1.354	2.042	O.3	2	CTX1	0.000	
87	   O	11.401	2.879	2.649	O.co2	2	CTX1	0.000	
88	   O	0.281	-1.814	-4.266	O.2	2	CTX1	0.000	
89	   H	1.246	-0.082	-2.279	 H	2	CTX1	0.000	
90	   H	5.220	0.859	-1.667	 H	2	CTX1	0.000	
91	   H	5.350	1.775	0.386	 H	2	CTX1	0.000	
92	   H	4.531	0.507	1.209	 H	2	CTX1	0.000	
93	   H	7.067	1.447	2.200	 H	2	CTX1	0.000	
94	   H	7.461	0.531	-1.023	 H	2	CTX1	0.000	
95	   H	7.143	5.114	-2.262	 H	2	CTX1	0.000	
96	   H	7.447	7.405	-1.636	 H	2	CTX1	0.000	
97	   H	8.207	7.999	0.608	 H	2	CTX1	0.000	
98	   H	8.660	6.235	2.240	 H	2	CTX1	0.000	
99	   H	8.366	3.930	1.660	 H	2	CTX1	0.000	
100	   H	9.131	-0.654	0.994	 H	2	CTX1	0.000	
101	   H	9.366	0.554	-2.680	 H	2	CTX1	0.000	
102	   H	9.530	-1.155	-3.249	 H	2	CTX1	0.000	
103	   H	8.019	-0.585	-2.584	 H	2	CTX1	0.000	
104	   H	7.342	-3.711	-0.492	 H	2	CTX1	0.000	
105	   H	8.052	-4.524	-3.859	 H	2	CTX1	0.000	
106	   H	9.361	-3.966	-2.755	 H	2	CTX1	0.000	
107	   H	8.084	-5.138	-2.160	 H	2	CTX1	0.000	
108	   H	6.182	-0.964	-3.535	 H	2	CTX1	0.000	
109	   H	5.293	-2.499	-3.120	 H	2	CTX1	0.000	
110	   H	4.435	-0.981	-3.245	 H	2	CTX1	0.000	
111	   H	4.986	-1.673	2.531	 H	2	CTX1	0.000	
112	   H	4.200	-1.555	0.959	 H	2	CTX1	0.000	
113	   H	4.980	-3.053	1.377	 H	2	CTX1	0.000	
114	   H	7.280	-1.962	2.894	 H	2	CTX1	0.000	
115	   H	7.172	-3.377	1.818	 H	2	CTX1	0.000	
116	   H	8.488	-2.255	1.670	 H	2	CTX1	0.000	
117	   H	11.403	-2.091	-1.565	 H	2	CTX1	0.000	
118	   H	13.248	0.276	-3.364	 H	2	CTX1	0.000	
119	   H	13.692	0.000	-1.650	 H	2	CTX1	0.000	
120	   H	13.258	-1.414	-2.730	 H	2	CTX1	0.000	
121	   H	11.495	-1.653	0.896	 H	2	CTX1	0.000	
122	   H	12.973	-1.114	0.104	 H	2	CTX1	0.000	
123	   H	12.155	0.511	1.824	 H	2	CTX1	0.000	
124	   H	10.771	3.103	0.263	 H	2	CTX1	0.000	
125	   H	10.520	2.002	-1.170	 H	2	CTX1	0.000	
126	   H	8.518	2.690	3.893	 H	2	CTX1	0.000	
127	   H	9.549	1.425	4.683	 H	2	CTX1	0.000	
128	   H	9.997	3.168	4.803	 H	2	CTX1	0.000	
129	   H	-0.672	-1.538	-1.878	 H	2	CTX1	0.000	
130	   H	1.561	-3.502	-1.941	 H	2	CTX1	0.000	
131	   H	2.988	-3.906	-6.219	 H	2	CTX1	0.000	
132	   H	1.769	-2.605	-6.353	 H	2	CTX1	0.000	
133	   H	3.159	-2.418	-5.225	 H	2	CTX1	0.000	
134	   H	3.138	-5.374	-4.210	 H	2	CTX1	0.000	
135	   H	2.051	-5.177	-2.809	 H	2	CTX1	0.000	
136	   H	3.344	-3.960	-3.132	 H	2	CTX1	0.000	
137	   H	-0.148	-4.214	-5.764	 H	2	CTX1	0.000	
138	   H	1.027	-5.569	-5.683	 H	2	CTX1	0.000	
139	   H	-0.053	-5.232	-4.286	 H	2	CTX1	0.000	
140	   H	1.514	-4.044	-0.230	 H	2	CTX1	0.000	
141	   H	0.985	-5.019	1.890	 H	2	CTX1	0.000	
142	   H	-0.822	-4.114	3.264	 H	2	CTX1	0.000	
143	   H	-2.108	-2.194	2.457	 H	2	CTX1	0.000	
144	   H	-1.591	-1.195	0.320	 H	2	CTX1	0.000	
@<TRIPOS>BOND
1 1 2 1
2 1 11 1
3 1 12 1
4 1 13 1
5 2 3 1
6 2 14 1
7 2 15 1
8 3 4 1
9 3 16 1
10 3 17 1
11 4 5 1
12 4 18 1
13 4 19 1
14 5 6 1
15 5 20 1
16 5 21 1
17 6 10 1
18 6 22 1
19 6 23 1
20 7 8 1
21 7 9 1
22 7 76 1
23 8 24 1
24 8 25 1
25 8 26 1
26 9 27 1
27 9 28 1
28 9 29 1
29 7 10 1
30 30 65 1
31 30 130 1
32 31 32 1
33 31 64 1
34 31 89 1
35 32 77 2
36 32 78 1
37 33 34 1
38 33 51 1
39 33 90 1
40 34 35 1
41 34 91 1
42 34 92 1
43 35 36 1
44 35 53 1
45 35 79 1
46 36 44 1
47 36 80 1
48 36 94 1
49 37 38 1
50 37 81 2
51 38 39 1
52 38 43 2
53 39 40 2
54 39 95 1
55 40 41 1
56 40 96 1
57 41 42 2
58 41 97 1
59 42 43 1
60 42 98 1
61 43 99 1
62 44 45 1
63 44 61 1
64 44 100 1
65 45 46 1
66 45 47 1
67 45 56 1
68 46 101 1
69 46 102 1
70 46 103 1
71 47 48 1
72 47 82 2
73 48 50 1
74 48 83 1
75 48 104 1
76 49 105 1
77 49 106 1
78 49 107 1
79 50 51 2
80 50 53 1
81 51 52 1
82 52 108 1
83 52 109 1
84 52 110 1
85 53 54 1
86 53 55 1
87 54 111 1
88 54 112 1
89 54 113 1
90 55 114 1
91 55 115 1
92 55 116 1
93 56 58 1
94 56 84 1
95 56 117 1
96 57 118 1
97 57 119 1
98 57 120 1
99 58 59 1
100 58 121 1
101 58 122 1
102 59 61 1
103 59 85 1
104 59 123 1
105 60 61 1
106 60 124 1
107 60 125 1
108 61 86 1
109 62 63 1
110 62 87 2
111 63 126 1
112 63 127 1
113 63 128 1
114 30 64 1
115 64 70 1
116 64 129 1
117 65 66 1
118 65 88 2
119 66 67 1
120 66 68 1
121 66 69 1
122 67 131 1
123 67 132 1
124 67 133 1
125 68 134 1
126 68 135 1
127 68 136 1
128 69 137 1
129 69 138 1
130 69 139 1
131 70 71 1
132 70 75 2
133 71 72 2
134 71 140 1
135 72 73 1
136 72 141 1
137 73 74 2
138 73 142 1
139 74 75 1
140 74 143 1
141 75 144 1
142 31 76 1
143 33 78 1
144 79 93 1
145 37 80 1
146 49 83 1
147 57 84 1
148 60 85 1
149 62 86 1
@<TRIPOS>SUBSTRUCTURE
1	CTL1	1	GROUP	1 ****	CTL
2	CTX1	30	GROUP	1 ****	CTX
