@<TRIPOS>MOLECULE
PTX 
126 132 0 0 0
SMALL
USER_CHARGES
#CGenFF output mol2 file
@<TRIPOS>ATOM
1	C1    -8.4220     0.3600    -0.9180	C.3	1	PTX1    -0.0900
2	C2    -6.9220    -0.4000     0.7790	C.3	1	PTX1     0.3950
3	C3    -7.4930     0.6960     1.6840	C.3	1	PTX1    -0.2690
4	C4    -6.7580    -1.6520     1.6470	C.3	1	PTX1    -0.2690
5	O1    -7.7830    -0.7280    -0.2850	O.3	1	PTX1    -0.3820
6	H1    -8.8780    -0.0180    -1.8600	H	1	PTX1     0.0900
7	H2    -9.2430     0.7530    -0.2810	H	1	PTX1     0.0900
8	H3    -7.6980     1.1610    -1.1750	H	1	PTX1     0.0900
9	H4    -6.8490     0.8400     2.5810	H	1	PTX1     0.0900
10	H5    -8.5140     0.4420     2.0480	H	1	PTX1     0.0900
11	H6    -7.5340     1.6890     1.1840	H	1	PTX1     0.0900
12	H7    -6.4220    -2.5530     1.0910	H	1	PTX1     0.0900
13	H8    -6.0510    -1.4870     2.4900	H	1	PTX1     0.0900
14	H9    -7.7340    -1.9350     2.1050	H	1	PTX1     0.0900
15	N     6.7020    -0.4510     2.5990	N.pl3	1	PTX1    -0.4050
16	C5    -4.9240    -0.7310    -0.5710	C.3	1	PTX1     0.1750
17	C6    -5.1610    -0.3200    -2.0290	C.3	1	PTX1    -0.2120
18	C7    -4.6700     1.0710    -2.3900	C.3	1	PTX1     0.0200
19	C8    -4.0110     2.4470    -1.0580	C.3	1	PTX1    -0.1060
20	C9    -3.2660     1.3890    -1.8750	C.3	1	PTX1     0.3660
21	C10    -2.6880     2.8940    -3.7310	C.2	1	PTX1     0.8850
22	C11    -1.5490     3.0230    -4.7260	C.3	1	PTX1    -0.3130
23	C12    -2.5530     0.2770    -1.0840	C.3	1	PTX1    -0.0740
24	C13    -1.1810     0.7230    -0.5080	C.3	1	PTX1     0.1330
25	C14    -0.9880     2.9800     0.4400	C.2	1	PTX1     0.4590
26	C15    -0.8690     4.3250     0.2210	C.2	1	PTX1     0.0860
27	C16    -0.8340     5.2140     1.2340	C.2	1	PTX1    -0.1100
28	C17    -0.7200     6.5300     0.9940	C.2	1	PTX1    -0.1140
29	C18    -0.6370     6.9830    -0.2660	C.2	1	PTX1    -0.1150
30	C19    -0.6700     6.1100    -1.2830	C.2	1	PTX1    -0.1140
31	C20    -0.7830     4.7950    -1.0390	C.2	1	PTX1    -0.1100
32	C21     0.1030     0.0450    -1.0570	C.3	1	PTX1     0.1860
33	C22     1.2890     0.4590    -0.1630	C.3	1	PTX1    -0.2120
34	C23     1.2450    -0.2300     1.2150	C.3	1	PTX1     0.2720
35	C24     3.1100    -1.6120     1.9900	C.2	1	PTX1     0.8530
36	C25     4.5040    -1.4440     2.5930	C.3	1	PTX1     0.1240
37	C26     5.4330    -0.4650     1.8550	C.3	1	PTX1     0.1180
38	C27     7.9470    -0.1060     2.1480	C.2	1	PTX1     0.3410
39	C28     8.1840     0.5610     0.9820	C.2	1	PTX1    -0.1370
40	C29     7.3280     1.4720     0.4820	C.2	1	PTX1    -0.0240
41	C30     7.5800     2.1120    -0.6710	C.2	1	PTX1    -0.1090
42	C31     8.7100     1.8620    -1.3470	C.2	1	PTX1    -0.1150
43	C32     9.5890     0.9810    -0.8500	C.2	1	PTX1    -0.1090
44	C33     9.3310     0.3460     0.3040	C.2	1	PTX1    -0.0240
45	C34     5.6050    -0.9550     0.4280	C.2	1	PTX1    -0.0400
46	C35     6.2990    -2.0750     0.1540	C.2	1	PTX1    -0.1060
47	C36     6.4390    -2.5120    -1.1080	C.2	1	PTX1    -0.1150
48	C37     5.8790    -1.8340    -2.1200	C.2	1	PTX1    -0.1150
49	C38     5.1820    -0.7170    -1.8630	C.2	1	PTX1    -0.1150
50	C39     5.0510    -0.2870    -0.5990	C.2	1	PTX1    -0.1060
51	C40     0.2590    -1.3890     1.3590	C.2	1	PTX1    -0.1530
52	C41    -0.0090    -1.7400     2.8120	C.3	1	PTX1    -0.2650
53	C42    -0.3830    -1.9060     0.2800	C.2	1	PTX1    -0.1130
54	C43    -1.6390    -2.7770     0.3320	C.3	1	PTX1     0.4320
55	C44    -2.9500    -4.1090     1.8560	C.2	1	PTX1     0.8340
56	C45    -3.2150    -4.2510     3.3420	C.3	1	PTX1    -0.3110
57	C46    -2.8260    -2.1400    -0.4420	C.2	1	PTX1     0.3000
58	C47    -3.3990    -0.7060    -0.1870	C.3	1	PTX1     0.0880
59	C48    -3.3070    -0.4090     1.3270	C.3	1	PTX1    -0.2630
60	C49     0.1390    -1.5080    -1.1060	C.3	1	PTX1     0.0160
61	C50     1.5730    -2.1120    -1.2540	C.3	1	PTX1    -0.2690
62	C51    -0.4990    -2.1510    -2.3700	C.3	1	PTX1    -0.2690
63	O2    -5.6900     0.0840     0.2860	O.3	1	PTX1    -0.4500
64	O3    -5.2560     2.1090    -1.6410	O.3	1	PTX1    -0.3430
65	O4    -2.4430     1.8340    -2.9140	O.3	1	PTX1    -0.4220
66	O5    -3.6420     3.6360    -3.7020	O.co2	1	PTX1    -0.6170
67	O6    -1.0270     2.1150    -0.6320	O.3	1	PTX1    -0.3100
68	O7    -1.0650     2.5470     1.5740	O.co2	1	PTX1    -0.4960
69	O8     0.3120     0.5650    -2.3420	O.3	1	PTX1    -0.4600
70	O9     2.5470    -0.3970     1.7390	O.3	1	PTX1    -0.4190
71	O10     2.6190    -2.7030     1.8090	O.co2	1	PTX1    -0.6280
72	O11     4.4070    -1.0410     3.9470	O.3	1	PTX1    -0.6620
73	O12     8.8560    -0.5760     2.7940	O.2	1	PTX1    -0.4580
74	O13    -2.0320    -3.1270     1.6480	O.3	1	PTX1    -0.4270
75	O14    -3.4890    -4.7610     0.9920	O.co2	1	PTX1    -0.6250
76	O15    -3.3000    -2.8060    -1.3400	O.2	1	PTX1    -0.5150
77	H10    -5.2970    -1.7710    -0.4520	H	1	PTX1     0.0900
78	H11    -4.6350    -1.0350    -2.7050	H	1	PTX1     0.0900
79	H12    -6.2330    -0.4070    -2.3100	H	1	PTX1     0.0900
80	H13    -4.8240     1.2790    -3.4730	H	1	PTX1     0.0900
81	H14    -3.7480     3.5080    -1.2420	H	1	PTX1     0.0900
82	H15    -4.0390     2.2320     0.0310	H	1	PTX1     0.0900
83	H16    -0.5700     3.0900    -4.1990	H	1	PTX1     0.0900
84	H17    -1.5330     2.1420    -5.4070	H	1	PTX1     0.0900
85	H18    -1.6670     3.9400    -5.3470	H	1	PTX1     0.0900
86	H19    -2.3010    -0.3330    -1.9750	H	1	PTX1     0.0900
87	H20    -1.1970     0.4860     0.5630	H	1	PTX1     0.0900
88	H21    -0.8990     4.9030     2.2900	H	1	PTX1     0.1150
89	H22    -0.6930     7.2450     1.8340	H	1	PTX1     0.1150
90	H23    -0.5440     8.0640    -0.4630	H	1	PTX1     0.1150
91	H24    -0.6020     6.4760    -2.3220	H	1	PTX1     0.1150
92	H25    -0.8020     4.1240    -1.9130	H	1	PTX1     0.1150
93	H26     0.2390     1.5240    -2.3030	H	1	PTX1     0.2920
94	H27     1.3530     1.5640    -0.0400	H	1	PTX1     0.0900
95	H28     2.2400     0.2420    -0.6940	H	1	PTX1     0.0900
96	H29     0.7810     0.5440     1.8830	H	1	PTX1     0.0900
97	H30     4.9770    -2.4540     2.6250	H	1	PTX1     0.0900
98	H31     4.1270    -1.7720     4.5020	H	1	PTX1     0.4210
99	H32     4.9660     0.5440     1.9190	H	1	PTX1     0.0900
100	H33     6.6830    -0.8570     3.5340	H	1	PTX1     0.2740
101	H34     6.4120     1.7610     1.0170	H	1	PTX1     0.1150
102	H35     6.8650     2.8580    -1.0570	H	1	PTX1     0.1150
103	H36     8.9210     2.3880    -2.2930	H	1	PTX1     0.1150
104	H37    10.5260     0.7770    -1.3960	H	1	PTX1     0.1150
105	H38    10.0870    -0.3750     0.6580	H	1	PTX1     0.1150
106	H39     6.7650    -2.6520     0.9700	H	1	PTX1     0.1150
107	H40     7.0120    -3.4310    -1.3120	H	1	PTX1     0.1150
108	H41     5.9900    -2.1910    -3.1570	H	1	PTX1     0.1150
109	H42     4.7180    -0.1530    -2.6890	H	1	PTX1     0.1150
110	H43     4.4790     0.6350    -0.4090	H	1	PTX1     0.1150
111	H44    -0.9380    -1.2740     3.2010	H	1	PTX1     0.0900
112	H45    -0.0270    -2.8380     2.9780	H	1	PTX1     0.0900
113	H46     0.8040    -1.3780     3.4790	H	1	PTX1     0.0900
114	H47    -1.3400    -3.7280    -0.1700	H	1	PTX1     0.0900
115	H48    -2.2760    -4.5140     3.8800	H	1	PTX1     0.0900
116	H49    -3.6160    -3.2970     3.7540	H	1	PTX1     0.0900
117	H50    -3.9620    -5.0530     3.5350	H	1	PTX1     0.0900
118	H51    -3.5660     0.6460     1.5690	H	1	PTX1     0.0900
119	H52    -3.9720    -1.0790     1.9130	H	1	PTX1     0.0900
120	H53    -2.3150    -0.5700     1.7780	H	1	PTX1     0.0900
121	H54     2.0720    -1.7760    -2.1910	H	1	PTX1     0.0900
122	H55     2.2870    -1.8790    -0.4460	H	1	PTX1     0.0900
123	H56     1.5490    -3.2260    -1.2640	H	1	PTX1     0.0900
124	H57     0.0560    -1.8670    -3.2920	H	1	PTX1     0.0900
125	H58    -0.4870    -3.2630    -2.3260	H	1	PTX1     0.0900
126	H59    -1.5360    -1.8880    -2.6210	H	1	PTX1     0.0900
@<TRIPOS>BOND
1	1	5	1
2	1	6	1
3	1	7	1
4	1	8	1
5	2	3	1
6	2	4	1
7	2	63	1
8	3	9	1
9	3	10	1
10	3	11	1
11	4	12	1
12	4	13	1
13	4	14	1
14	2	5	1
15	15	38	1
16	15	100	1
17	16	17	1
18	16	58	1
19	16	77	1
20	17	18	1
21	17	78	1
22	17	79	1
23	18	20	1
24	18	64	1
25	18	80	1
26	19	20	1
27	19	81	1
28	19	82	1
29	20	23	1
30	20	65	1
31	21	22	1
32	21	66	2
33	22	83	1
34	22	84	1
35	22	85	1
36	23	24	1
37	23	58	1
38	23	86	1
39	24	32	1
40	24	67	1
41	24	87	1
42	25	26	1
43	25	68	2
44	26	27	1
45	26	31	2
46	27	28	2
47	27	88	1
48	28	29	1
49	28	89	1
50	29	30	2
51	29	90	1
52	30	31	1
53	30	91	1
54	31	92	1
55	32	33	1
56	32	60	1
57	32	69	1
58	33	34	1
59	33	94	1
60	33	95	1
61	34	51	1
62	34	70	1
63	34	96	1
64	35	36	1
65	35	71	2
66	36	37	1
67	36	72	1
68	36	97	1
69	15	37	1
70	37	45	1
71	37	99	1
72	38	39	1
73	38	73	2
74	39	40	1
75	39	44	2
76	40	41	2
77	40	101	1
78	41	42	1
79	41	102	1
80	42	43	2
81	42	103	1
82	43	44	1
83	43	104	1
84	44	105	1
85	45	46	1
86	45	50	2
87	46	47	2
88	46	106	1
89	47	48	1
90	47	107	1
91	48	49	2
92	48	108	1
93	49	50	1
94	49	109	1
95	50	110	1
96	51	52	1
97	51	53	2
98	52	111	1
99	52	112	1
100	52	113	1
101	53	54	1
102	53	60	1
103	54	57	1
104	54	74	1
105	54	114	1
106	55	56	1
107	55	75	2
108	56	115	1
109	56	116	1
110	56	117	1
111	57	58	1
112	57	76	2
113	58	59	1
114	59	118	1
115	59	119	1
116	59	120	1
117	60	61	1
118	60	62	1
119	61	121	1
120	61	122	1
121	61	123	1
122	62	124	1
123	62	125	1
124	62	126	1
125	16	63	1
126	19	64	1
127	21	65	1
128	25	67	1
129	69	93	1
130	35	70	1
131	72	98	1
132	55	74	1
