# created with PyMOL 2.5.4
@<TRIPOS>MOLECULE
PTX
126 132 2               
SMALL
USER_CHARGES
@<TRIPOS>ATOM
1	   C	-8.422	0.360	-0.918	C.3	1	PTL1	0.000	
2	   C	-6.922	-0.400	0.779	C.3	1	PTL1	0.000	
3	   C	-7.493	0.696	1.684	C.3	1	PTL1	0.000	
4	   C	-6.758	-1.652	1.647	C.3	1	PTL1	0.000	
5	   O	-7.783	-0.728	-0.285	O.3	1	PTL1	0.000	
6	   H	-8.878	-0.018	-1.860	 H	1	PTL1	0.000	
7	   H	-9.243	0.753	-0.281	 H	1	PTL1	0.000	
8	   H	-7.698	1.161	-1.175	 H	1	PTL1	0.000	
9	   H	-6.849	0.840	2.581	 H	1	PTL1	0.000	
10	   H	-8.514	0.442	2.048	 H	1	PTL1	0.000	
11	   H	-7.534	1.689	1.184	 H	1	PTL1	0.000	
12	   H	-6.422	-2.553	1.091	 H	1	PTL1	0.000	
13	   H	-6.051	-1.487	2.490	 H	1	PTL1	0.000	
14	   H	-7.734	-1.935	2.105	 H	1	PTL1	0.000	
15	   N	6.702	-0.451	2.599	N.pl3	2	PTX1	0.000	
16	   C	-4.924	-0.731	-0.571	C.3	2	PTX1	0.000	
17	   C	-5.161	-0.320	-2.029	C.3	2	PTX1	0.000	
18	   C	-4.670	1.071	-2.390	C.3	2	PTX1	0.000	
19	   C	-4.011	2.447	-1.058	C.3	2	PTX1	0.000	
20	   C	-3.266	1.389	-1.875	C.3	2	PTX1	0.000	
21	   C	-2.688	2.894	-3.731	C.2	2	PTX1	0.000	
22	   C	-1.549	3.023	-4.726	C.3	2	PTX1	0.000	
23	   C	-2.553	0.277	-1.084	C.3	2	PTX1	0.000	
24	   C	-1.181	0.723	-0.508	C.3	2	PTX1	0.000	
25	   C	-0.988	2.980	0.440	C.2	2	PTX1	0.000	
26	   C	-0.869	4.325	0.221	C.2	2	PTX1	0.000	
27	   C	-0.834	5.214	1.234	C.2	2	PTX1	0.000	
28	   C	-0.720	6.530	0.994	C.2	2	PTX1	0.000	
29	   C	-0.637	6.983	-0.266	C.2	2	PTX1	0.000	
30	   C	-0.670	6.110	-1.283	C.2	2	PTX1	0.000	
31	   C	-0.783	4.795	-1.039	C.2	2	PTX1	0.000	
32	   C	0.103	0.045	-1.057	C.3	2	PTX1	0.000	
33	   C	1.289	0.459	-0.163	C.3	2	PTX1	0.000	
34	   C	1.245	-0.230	1.215	C.3	2	PTX1	0.000	
35	   C	3.110	-1.612	1.990	C.2	2	PTX1	0.000	
36	   C	4.504	-1.444	2.593	C.3	2	PTX1	0.000	
37	   C	5.433	-0.465	1.855	C.3	2	PTX1	0.000	
38	   C	7.947	-0.106	2.148	C.2	2	PTX1	0.000	
39	   C	8.184	0.561	0.982	C.2	2	PTX1	0.000	
40	   C	7.328	1.472	0.482	C.2	2	PTX1	0.000	
41	   C	7.580	2.112	-0.671	C.2	2	PTX1	0.000	
42	   C	8.710	1.862	-1.347	C.2	2	PTX1	0.000	
43	   C	9.589	0.981	-0.850	C.2	2	PTX1	0.000	
44	   C	9.331	0.346	0.304	C.2	2	PTX1	0.000	
45	   C	5.605	-0.955	0.428	C.2	2	PTX1	0.000	
46	   C	6.299	-2.075	0.154	C.2	2	PTX1	0.000	
47	   C	6.439	-2.512	-1.108	C.2	2	PTX1	0.000	
48	   C	5.879	-1.834	-2.120	C.2	2	PTX1	0.000	
49	   C	5.182	-0.717	-1.863	C.2	2	PTX1	0.000	
50	   C	5.051	-0.287	-0.599	C.2	2	PTX1	0.000	
51	   C	0.259	-1.389	1.359	C.2	2	PTX1	0.000	
52	   C	-0.009	-1.740	2.812	C.3	2	PTX1	0.000	
53	   C	-0.383	-1.906	0.280	C.2	2	PTX1	0.000	
54	   C	-1.639	-2.777	0.332	C.3	2	PTX1	0.000	
55	   C	-2.950	-4.109	1.856	C.2	2	PTX1	0.000	
56	   C	-3.215	-4.251	3.342	C.3	2	PTX1	0.000	
57	   C	-2.826	-2.140	-0.442	C.2	2	PTX1	0.000	
58	   C	-3.399	-0.706	-0.187	C.3	2	PTX1	0.000	
59	   C	-3.307	-0.409	1.327	C.3	2	PTX1	0.000	
60	   C	0.139	-1.508	-1.106	C.3	2	PTX1	0.000	
61	   C	1.573	-2.112	-1.254	C.3	2	PTX1	0.000	
62	   C	-0.499	-2.151	-2.370	C.3	2	PTX1	0.000	
63	   O	-5.690	0.084	0.286	O.3	2	PTX1	0.000	
64	   O	-5.256	2.109	-1.641	O.3	2	PTX1	0.000	
65	   O	-2.443	1.834	-2.914	O.3	2	PTX1	0.000	
66	   O	-3.642	3.636	-3.702	O.co2	2	PTX1	0.000	
67	   O	-1.027	2.115	-0.632	O.3	2	PTX1	0.000	
68	   O	-1.065	2.547	1.574	O.co2	2	PTX1	0.000	
69	   O	0.312	0.565	-2.342	O.3	2	PTX1	0.000	
70	   O	2.547	-0.397	1.739	O.3	2	PTX1	0.000	
71	   O	2.619	-2.703	1.809	O.co2	2	PTX1	0.000	
72	   O	4.407	-1.041	3.947	O.3	2	PTX1	0.000	
73	   O	8.856	-0.576	2.794	O.2	2	PTX1	0.000	
74	   O	-2.032	-3.127	1.648	O.3	2	PTX1	0.000	
75	   O	-3.489	-4.761	0.992	O.co2	2	PTX1	0.000	
76	   O	-3.300	-2.806	-1.340	O.2	2	PTX1	0.000	
77	   H	-5.297	-1.771	-0.452	 H	2	PTX1	0.000	
78	   H	-4.635	-1.035	-2.705	 H	2	PTX1	0.000	
79	   H	-6.233	-0.407	-2.310	 H	2	PTX1	0.000	
80	   H	-4.824	1.279	-3.473	 H	2	PTX1	0.000	
81	   H	-3.748	3.508	-1.242	 H	2	PTX1	0.000	
82	   H	-4.039	2.232	0.031	 H	2	PTX1	0.000	
83	   H	-0.570	3.090	-4.199	 H	2	PTX1	0.000	
84	   H	-1.533	2.142	-5.407	 H	2	PTX1	0.000	
85	   H	-1.667	3.940	-5.347	 H	2	PTX1	0.000	
86	   H	-2.301	-0.333	-1.975	 H	2	PTX1	0.000	
87	   H	-1.197	0.486	0.563	 H	2	PTX1	0.000	
88	   H	-0.899	4.903	2.290	 H	2	PTX1	0.000	
89	   H	-0.693	7.245	1.834	 H	2	PTX1	0.000	
90	   H	-0.544	8.064	-0.463	 H	2	PTX1	0.000	
91	   H	-0.602	6.476	-2.322	 H	2	PTX1	0.000	
92	   H	-0.802	4.124	-1.913	 H	2	PTX1	0.000	
93	   H	0.239	1.524	-2.303	 H	2	PTX1	0.000	
94	   H	1.353	1.564	-0.040	 H	2	PTX1	0.000	
95	   H	2.240	0.242	-0.694	 H	2	PTX1	0.000	
96	   H	0.781	0.544	1.883	 H	2	PTX1	0.000	
97	   H	4.977	-2.454	2.625	 H	2	PTX1	0.000	
98	   H	4.127	-1.772	4.502	 H	2	PTX1	0.000	
99	   H	4.966	0.544	1.919	 H	2	PTX1	0.000	
100	   H	6.683	-0.857	3.534	 H	2	PTX1	0.000	
101	   H	6.412	1.761	1.017	 H	2	PTX1	0.000	
102	   H	6.865	2.858	-1.057	 H	2	PTX1	0.000	
103	   H	8.921	2.388	-2.293	 H	2	PTX1	0.000	
104	   H	10.526	0.777	-1.396	 H	2	PTX1	0.000	
105	   H	10.087	-0.375	0.658	 H	2	PTX1	0.000	
106	   H	6.765	-2.652	0.970	 H	2	PTX1	0.000	
107	   H	7.012	-3.431	-1.312	 H	2	PTX1	0.000	
108	   H	5.990	-2.191	-3.157	 H	2	PTX1	0.000	
109	   H	4.718	-0.153	-2.689	 H	2	PTX1	0.000	
110	   H	4.479	0.635	-0.409	 H	2	PTX1	0.000	
111	   H	-0.938	-1.274	3.201	 H	2	PTX1	0.000	
112	   H	-0.027	-2.838	2.978	 H	2	PTX1	0.000	
113	   H	0.804	-1.378	3.479	 H	2	PTX1	0.000	
114	   H	-1.340	-3.728	-0.170	 H	2	PTX1	0.000	
115	   H	-2.276	-4.514	3.880	 H	2	PTX1	0.000	
116	   H	-3.616	-3.297	3.754	 H	2	PTX1	0.000	
117	   H	-3.962	-5.053	3.535	 H	2	PTX1	0.000	
118	   H	-3.566	0.646	1.569	 H	2	PTX1	0.000	
119	   H	-3.972	-1.079	1.913	 H	2	PTX1	0.000	
120	   H	-2.315	-0.570	1.778	 H	2	PTX1	0.000	
121	   H	2.072	-1.776	-2.191	 H	2	PTX1	0.000	
122	   H	2.287	-1.879	-0.446	 H	2	PTX1	0.000	
123	   H	1.549	-3.226	-1.264	 H	2	PTX1	0.000	
124	   H	0.056	-1.867	-3.292	 H	2	PTX1	0.000	
125	   H	-0.487	-3.263	-2.326	 H	2	PTX1	0.000	
126	   H	-1.536	-1.888	-2.621	 H	2	PTX1	0.000	
@<TRIPOS>BOND
1 1 5 1
2 1 6 1
3 1 7 1
4 1 8 1
5 2 3 1
6 2 4 1
7 2 63 1
8 3 9 1
9 3 10 1
10 3 11 1
11 4 12 1
12 4 13 1
13 4 14 1
14 2 5 1
15 15 38 1
16 15 100 1
17 16 17 1
18 16 58 1
19 16 77 1
20 17 18 1
21 17 78 1
22 17 79 1
23 18 20 1
24 18 64 1
25 18 80 1
26 19 20 1
27 19 81 1
28 19 82 1
29 20 23 1
30 20 65 1
31 21 22 1
32 21 66 2
33 22 83 1
34 22 84 1
35 22 85 1
36 23 24 1
37 23 58 1
38 23 86 1
39 24 32 1
40 24 67 1
41 24 87 1
42 25 26 1
43 25 68 2
44 26 27 1
45 26 31 2
46 27 28 2
47 27 88 1
48 28 29 1
49 28 89 1
50 29 30 2
51 29 90 1
52 30 31 1
53 30 91 1
54 31 92 1
55 32 33 1
56 32 60 1
57 32 69 1
58 33 34 1
59 33 94 1
60 33 95 1
61 34 51 1
62 34 70 1
63 34 96 1
64 35 36 1
65 35 71 2
66 36 37 1
67 36 72 1
68 36 97 1
69 15 37 1
70 37 45 1
71 37 99 1
72 38 39 1
73 38 73 2
74 39 40 1
75 39 44 2
76 40 41 2
77 40 101 1
78 41 42 1
79 41 102 1
80 42 43 2
81 42 103 1
82 43 44 1
83 43 104 1
84 44 105 1
85 45 46 1
86 45 50 2
87 46 47 2
88 46 106 1
89 47 48 1
90 47 107 1
91 48 49 2
92 48 108 1
93 49 50 1
94 49 109 1
95 50 110 1
96 51 52 1
97 51 53 2
98 52 111 1
99 52 112 1
100 52 113 1
101 53 54 1
102 53 60 1
103 54 57 1
104 54 74 1
105 54 114 1
106 55 56 1
107 55 75 2
108 56 115 1
109 56 116 1
110 56 117 1
111 57 58 1
112 57 76 2
113 58 59 1
114 59 118 1
115 59 119 1
116 59 120 1
117 60 61 1
118 60 62 1
119 61 121 1
120 61 122 1
121 61 123 1
122 62 124 1
123 62 125 1
124 62 126 1
125 16 63 1
126 19 64 1
127 21 65 1
128 25 67 1
129 69 93 1
130 35 70 1
131 72 98 1
132 55 74 1
@<TRIPOS>SUBSTRUCTURE
1	PTL1	1	GROUP	1 ****	PTL
2	PTX1	15	GROUP	1 ****	PTX
