# created with PyMOL 2.5.4
@<TRIPOS>MOLECULE
PTX
149 157 2               
SMALL
USER_CHARGES
@<TRIPOS>ATOM
1	   C	1.842	2.767	-0.329	C.3	1	PTL1	0.000	
2	   C	1.135	4.093	-0.049	C.3	1	PTL1	0.000	
3	   C	3.139	2.997	-1.096	C.3	1	PTL1	0.000	
4	   C	0.582	2.104	-2.263	C.3	1	PTL1	0.000	
5	   C	-0.934	1.922	-2.384	C.3	1	PTL1	0.000	
6	   C	-1.402	2.101	-3.835	C.3	1	PTL1	0.000	
7	   C	-0.679	1.119	-4.772	C.3	1	PTL1	0.000	
8	   C	-1.126	1.302	-6.233	C.3	1	PTL1	0.000	
9	   C	-0.396	0.321	-7.161	C.3	1	PTL1	0.000	
10	   C	1.125	0.478	-7.035	C.3	1	PTL1	0.000	
11	   C	1.574	0.297	-5.578	C.3	1	PTL1	0.000	
12	   C	0.846	1.283	-4.648	C.3	1	PTL1	0.000	
13	   C	1.290	1.106	-3.186	C.3	1	PTL1	0.000	
14	   O	0.947	1.861	-0.934	O.3	1	PTL1	0.000	
15	   H	0.923	4.674	-0.973	 H	1	PTL1	0.000	
16	   H	0.166	3.932	0.477	 H	1	PTL1	0.000	
17	   H	1.763	4.744	0.601	 H	1	PTL1	0.000	
18	   H	2.976	3.559	-2.042	 H	1	PTL1	0.000	
19	   H	3.673	2.060	-1.363	 H	1	PTL1	0.000	
20	   H	3.842	3.616	-0.494	 H	1	PTL1	0.000	
21	   H	0.829	3.145	-2.567	 H	1	PTL1	0.000	
22	   H	-1.456	2.661	-1.729	 H	1	PTL1	0.000	
23	   H	-1.221	0.906	-2.023	 H	1	PTL1	0.000	
24	   H	-2.505	1.944	-3.896	 H	1	PTL1	0.000	
25	   H	-1.201	3.149	-4.162	 H	1	PTL1	0.000	
26	   H	-0.948	0.080	-4.456	 H	1	PTL1	0.000	
27	   H	-2.228	1.147	-6.316	 H	1	PTL1	0.000	
28	   H	-0.915	2.348	-6.560	 H	1	PTL1	0.000	
29	   H	-0.710	0.493	-8.219	 H	1	PTL1	0.000	
30	   H	-0.686	-0.725	-6.899	 H	1	PTL1	0.000	
31	   H	1.640	-0.268	-7.687	 H	1	PTL1	0.000	
32	   H	1.426	1.491	-7.394	 H	1	PTL1	0.000	
33	   H	2.678	0.448	-5.505	 H	1	PTL1	0.000	
34	   H	1.363	-0.749	-5.252	 H	1	PTL1	0.000	
35	   H	1.117	2.321	-4.967	 H	1	PTL1	0.000	
36	   H	1.068	0.066	-2.852	 H	1	PTL1	0.000	
37	   H	2.394	1.237	-3.122	 H	1	PTL1	0.000	
38	   N	0.591	0.057	1.491	N.pl3	2	PTX1	0.000	
39	   C	7.802	-4.849	-3.147	C.3	2	PTX1	0.000	
40	   C	8.358	-4.782	-1.738	C.2	2	PTX1	0.000	
41	   C	8.544	-3.234	0.101	C.3	2	PTX1	0.000	
42	   C	10.066	-2.925	0.058	C.2	2	PTX1	0.000	
43	   C	10.689	-1.600	-0.487	C.3	2	PTX1	0.000	
44	   C	9.886	-1.163	-1.735	C.3	2	PTX1	0.000	
45	   C	12.129	-1.921	-0.987	C.3	2	PTX1	0.000	
46	   C	13.220	-1.764	0.067	C.3	2	PTX1	0.000	
47	   C	13.313	-0.348	0.609	C.3	2	PTX1	0.000	
48	   C	12.370	1.273	-0.160	C.3	2	PTX1	0.000	
49	   C	11.965	0.294	0.946	C.3	2	PTX1	0.000	
50	   C	12.841	1.663	2.788	C.2	2	PTX1	0.000	
51	   C	12.450	1.952	4.226	C.3	2	PTX1	0.000	
52	   C	10.707	-0.561	0.695	C.3	2	PTX1	0.000	
53	   C	9.384	0.208	0.937	C.3	2	PTX1	0.000	
54	   C	9.152	2.543	0.217	C.2	2	PTX1	0.000	
55	   C	9.384	3.867	0.478	C.2	2	PTX1	0.000	
56	   C	8.928	4.844	-0.331	C.2	2	PTX1	0.000	
57	   C	9.169	6.136	-0.054	C.2	2	PTX1	0.000	
58	   C	9.871	6.474	1.037	C.2	2	PTX1	0.000	
59	   C	10.330	5.512	1.850	C.2	2	PTX1	0.000	
60	   C	10.087	4.222	1.571	C.2	2	PTX1	0.000	
61	   C	8.483	-0.251	2.115	C.3	2	PTX1	0.000	
62	   C	7.130	0.475	1.999	C.3	2	PTX1	0.000	
63	   C	6.312	-0.037	0.799	C.3	2	PTX1	0.000	
64	   C	4.265	1.119	1.271	C.2	2	PTX1	0.000	
65	   C	2.773	0.947	0.951	C.3	2	PTX1	0.000	
66	   C	2.005	0.004	1.906	C.3	2	PTX1	0.000	
67	   C	-0.401	-0.851	1.743	C.2	2	PTX1	0.000	
68	   C	-0.327	-1.816	2.705	C.2	2	PTX1	0.000	
69	   C	0.334	-1.630	3.863	C.2	2	PTX1	0.000	
70	   C	0.398	-2.594	4.795	C.2	2	PTX1	0.000	
71	   C	-0.214	-3.769	4.591	C.2	2	PTX1	0.000	
72	   C	-0.902	-3.962	3.457	C.2	2	PTX1	0.000	
73	   C	-0.963	-2.992	2.531	C.2	2	PTX1	0.000	
74	   C	2.539	-1.415	1.804	C.2	2	PTX1	0.000	
75	   C	2.387	-2.131	0.675	C.2	2	PTX1	0.000	
76	   C	2.859	-3.384	0.578	C.2	2	PTX1	0.000	
77	   C	3.486	-3.947	1.621	C.2	2	PTX1	0.000	
78	   C	3.641	-3.248	2.755	C.2	2	PTX1	0.000	
79	   C	3.181	-1.990	2.838	C.2	2	PTX1	0.000	
80	   C	6.765	-1.381	0.210	C.2	2	PTX1	0.000	
81	   C	6.080	-1.696	-1.106	C.3	2	PTX1	0.000	
82	   C	7.753	-2.118	0.777	C.2	2	PTX1	0.000	
83	   C	8.145	-1.763	2.211	C.3	2	PTX1	0.000	
84	   C	9.191	-2.637	2.957	C.3	2	PTX1	0.000	
85	   C	6.890	-2.095	3.080	C.3	2	PTX1	0.000	
86	   O	8.958	-5.677	-1.188	O.co2	2	PTX1	0.000	
87	   O	8.081	-3.564	-1.197	O.3	2	PTX1	0.000	
88	   O	10.804	-3.770	0.521	O.2	2	PTX1	0.000	
89	   O	12.478	-1.117	-2.094	O.3	2	PTX1	0.000	
90	   O	13.596	0.602	-0.392	O.3	2	PTX1	0.000	
91	   O	11.943	0.792	2.251	O.3	2	PTX1	0.000	
92	   O	13.804	2.148	2.242	O.co2	2	PTX1	0.000	
93	   O	9.635	1.583	1.080	O.3	2	PTX1	0.000	
94	   O	8.518	2.214	-0.766	O.co2	2	PTX1	0.000	
95	   O	9.111	0.171	3.295	O.3	2	PTX1	0.000	
96	   O	4.923	-0.048	1.024	O.3	2	PTX1	0.000	
97	   O	4.791	2.161	1.593	O.co2	2	PTX1	0.000	
98	   O	2.084	2.187	0.939	O.3	2	PTX1	0.000	
99	   O	-1.303	-0.840	0.938	O.2	2	PTX1	0.000	
100	   H	8.018	-5.838	-3.611	 H	2	PTX1	0.000	
101	   H	6.698	-4.706	-3.134	 H	2	PTX1	0.000	
102	   H	8.264	-4.059	-3.782	 H	2	PTX1	0.000	
103	   H	8.364	-4.126	0.747	 H	2	PTX1	0.000	
104	   H	10.162	-0.142	-2.078	 H	2	PTX1	0.000	
105	   H	10.042	-1.868	-2.584	 H	2	PTX1	0.000	
106	   H	8.792	-1.132	-1.594	 H	2	PTX1	0.000	
107	   H	12.167	-2.960	-1.394	 H	2	PTX1	0.000	
108	   H	13.397	-0.848	-2.042	 H	2	PTX1	0.000	
109	   H	13.033	-2.452	0.923	 H	2	PTX1	0.000	
110	   H	14.209	-2.055	-0.362	 H	2	PTX1	0.000	
111	   H	14.082	-0.276	1.410	 H	2	PTX1	0.000	
112	   H	12.537	2.328	0.137	 H	2	PTX1	0.000	
113	   H	11.729	1.222	-1.064	 H	2	PTX1	0.000	
114	   H	11.399	2.315	4.284	 H	2	PTX1	0.000	
115	   H	12.547	1.029	4.842	 H	2	PTX1	0.000	
116	   H	13.108	2.734	4.666	 H	2	PTX1	0.000	
117	   H	10.840	-1.198	1.594	 H	2	PTX1	0.000	
118	   H	8.786	0.071	0.025	 H	2	PTX1	0.000	
119	   H	8.345	4.629	-1.241	 H	2	PTX1	0.000	
120	   H	8.789	6.924	-0.725	 H	2	PTX1	0.000	
121	   H	10.069	7.535	1.264	 H	2	PTX1	0.000	
122	   H	10.910	5.784	2.749	 H	2	PTX1	0.000	
123	   H	10.489	3.474	2.273	 H	2	PTX1	0.000	
124	   H	9.276	1.117	3.236	 H	2	PTX1	0.000	
125	   H	7.297	1.573	1.927	 H	2	PTX1	0.000	
126	   H	6.557	0.382	2.948	 H	2	PTX1	0.000	
127	   H	6.484	0.686	-0.039	 H	2	PTX1	0.000	
128	   H	2.734	0.492	-0.064	 H	2	PTX1	0.000	
129	   H	2.119	0.442	2.923	 H	2	PTX1	0.000	
130	   H	0.343	0.771	0.807	 H	2	PTX1	0.000	
131	   H	0.809	-0.670	4.110	 H	2	PTX1	0.000	
132	   H	0.941	-2.416	5.738	 H	2	PTX1	0.000	
133	   H	-0.166	-4.562	5.356	 H	2	PTX1	0.000	
134	   H	-1.416	-4.923	3.287	 H	2	PTX1	0.000	
135	   H	-1.535	-3.212	1.613	 H	2	PTX1	0.000	
136	   H	1.868	-1.694	-0.194	 H	2	PTX1	0.000	
137	   H	2.728	-3.952	-0.358	 H	2	PTX1	0.000	
138	   H	3.872	-4.977	1.547	 H	2	PTX1	0.000	
139	   H	4.156	-3.704	3.616	 H	2	PTX1	0.000	
140	   H	3.335	-1.429	3.774	 H	2	PTX1	0.000	
141	   H	6.711	-1.443	-1.985	 H	2	PTX1	0.000	
142	   H	5.754	-2.758	-1.150	 H	2	PTX1	0.000	
143	   H	5.135	-1.126	-1.238	 H	2	PTX1	0.000	
144	   H	9.290	-2.318	4.020	 H	2	PTX1	0.000	
145	   H	8.904	-3.712	2.981	 H	2	PTX1	0.000	
146	   H	10.226	-2.637	2.587	 H	2	PTX1	0.000	
147	   H	6.997	-1.726	4.125	 H	2	PTX1	0.000	
148	   H	5.931	-1.699	2.697	 H	2	PTX1	0.000	
149	   H	6.707	-3.192	3.131	 H	2	PTX1	0.000	
@<TRIPOS>BOND
1 1 2 1
2 1 3 1
3 1 14 1
4 2 15 1
5 2 16 1
6 2 17 1
7 3 18 1
8 3 19 1
9 3 20 1
10 4 5 1
11 4 13 1
12 4 21 1
13 5 6 1
14 5 22 1
15 5 23 1
16 6 7 1
17 6 24 1
18 6 25 1
19 7 8 1
20 7 12 1
21 7 26 1
22 8 9 1
23 8 27 1
24 8 28 1
25 9 10 1
26 9 29 1
27 9 30 1
28 10 11 1
29 10 31 1
30 10 32 1
31 11 12 1
32 11 33 1
33 11 34 1
34 12 13 1
35 12 35 1
36 13 36 1
37 13 37 1
38 4 14 1
39 38 67 1
40 38 130 1
41 39 40 1
42 39 100 1
43 39 101 1
44 39 102 1
45 40 86 2
46 40 87 1
47 41 42 1
48 41 82 1
49 41 103 1
50 42 43 1
51 42 88 2
52 43 44 1
53 43 45 1
54 43 52 1
55 44 104 1
56 44 105 1
57 44 106 1
58 45 46 1
59 45 89 1
60 45 107 1
61 46 47 1
62 46 109 1
63 46 110 1
64 47 49 1
65 47 90 1
66 47 111 1
67 48 49 1
68 48 112 1
69 48 113 1
70 49 52 1
71 49 91 1
72 50 51 1
73 50 92 2
74 51 114 1
75 51 115 1
76 51 116 1
77 52 53 1
78 52 117 1
79 53 61 1
80 53 93 1
81 53 118 1
82 54 55 1
83 54 94 2
84 55 56 1
85 55 60 2
86 56 57 2
87 56 119 1
88 57 58 1
89 57 120 1
90 58 59 2
91 58 121 1
92 59 60 1
93 59 122 1
94 60 123 1
95 61 62 1
96 61 83 1
97 61 95 1
98 62 63 1
99 62 125 1
100 62 126 1
101 63 80 1
102 63 96 1
103 63 127 1
104 64 65 1
105 64 97 2
106 65 66 1
107 65 98 1
108 65 128 1
109 38 66 1
110 66 74 1
111 66 129 1
112 67 68 1
113 67 99 2
114 68 69 1
115 68 73 2
116 69 70 2
117 69 131 1
118 70 71 1
119 70 132 1
120 71 72 2
121 71 133 1
122 72 73 1
123 72 134 1
124 73 135 1
125 74 75 1
126 74 79 2
127 75 76 2
128 75 136 1
129 76 77 1
130 76 137 1
131 77 78 2
132 77 138 1
133 78 79 1
134 78 139 1
135 79 140 1
136 80 81 1
137 80 82 2
138 81 141 1
139 81 142 1
140 81 143 1
141 82 83 1
142 83 84 1
143 83 85 1
144 84 144 1
145 84 145 1
146 84 146 1
147 85 147 1
148 85 148 1
149 85 149 1
150 41 87 1
151 89 108 1
152 48 90 1
153 50 91 1
154 54 93 1
155 95 124 1
156 64 96 1
157 1 98 1
@<TRIPOS>SUBSTRUCTURE
1	PTL1	1	GROUP	1 ****	PTL
2	PTX1	38	GROUP	1 ****	PTX
