# created with PyMOL 2.5.4
@<TRIPOS>MOLECULE
PTX
153 159 2               
SMALL
USER_CHARGES
@<TRIPOS>ATOM
1	   C	-0.410	7.699	8.451	C.3	1	PTL1	0.000	
2	   C	0.764	7.254	7.570	C.3	1	PTL1	0.000	
3	   C	0.284	6.534	6.300	C.3	1	PTL1	0.000	
4	   C	1.458	6.082	5.415	C.3	1	PTL1	0.000	
5	   C	0.977	5.356	4.149	C.3	1	PTL1	0.000	
6	   C	2.150	4.890	3.270	C.3	1	PTL1	0.000	
7	   C	1.666	4.148	2.014	C.3	1	PTL1	0.000	
8	   C	2.838	3.658	1.147	C.3	1	PTL1	0.000	
9	   C	2.351	2.886	-0.090	C.3	1	PTL1	0.000	
10	   C	3.516	2.354	-0.926	C.3	1	PTL1	0.000	
11	   C	3.905	0.770	-2.677	C.3	1	PTL1	0.000	
12	   C	3.148	0.216	-3.885	C.3	1	PTL1	0.000	
13	   C	5.145	1.526	-3.139	C.3	1	PTL1	0.000	
14	   O	2.992	1.616	-2.004	O.3	1	PTL1	0.000	
15	   H	-0.048	8.220	9.368	 H	1	PTL1	0.000	
16	   H	-1.080	8.402	7.905	 H	1	PTL1	0.000	
17	   H	-1.021	6.826	8.778	 H	1	PTL1	0.000	
18	   H	1.427	6.575	8.157	 H	1	PTL1	0.000	
19	   H	1.370	8.148	7.286	 H	1	PTL1	0.000	
20	   H	-0.378	7.216	5.716	 H	1	PTL1	0.000	
21	   H	-0.325	5.644	6.589	 H	1	PTL1	0.000	
22	   H	2.121	5.402	6.002	 H	1	PTL1	0.000	
23	   H	2.066	6.971	5.124	 H	1	PTL1	0.000	
24	   H	0.320	6.037	3.558	 H	1	PTL1	0.000	
25	   H	0.363	4.471	4.443	 H	1	PTL1	0.000	
26	   H	2.810	4.216	3.866	 H	1	PTL1	0.000	
27	   H	2.761	5.774	2.967	 H	1	PTL1	0.000	
28	   H	1.016	4.825	1.409	 H	1	PTL1	0.000	
29	   H	1.044	3.274	2.320	 H	1	PTL1	0.000	
30	   H	3.493	2.994	1.760	 H	1	PTL1	0.000	
31	   H	3.454	4.529	0.823	 H	1	PTL1	0.000	
32	   H	1.712	3.550	-0.720	 H	1	PTL1	0.000	
33	   H	1.717	2.028	0.240	 H	1	PTL1	0.000	
34	   H	4.157	1.712	-0.282	 H	1	PTL1	0.000	
35	   H	4.114	3.209	-1.316	 H	1	PTL1	0.000	
36	   H	3.776	-0.448	-4.519	 H	1	PTL1	0.000	
37	   H	2.791	1.042	-4.542	 H	1	PTL1	0.000	
38	   H	2.253	-0.369	-3.570	 H	1	PTL1	0.000	
39	   H	4.853	2.402	-3.762	 H	1	PTL1	0.000	
40	   H	5.766	1.918	-2.306	 H	1	PTL1	0.000	
41	   H	5.807	0.898	-3.774	 H	1	PTL1	0.000	
42	   N	5.754	-3.566	-1.831	N.pl3	2	PTX1	0.000	
43	   C	5.189	-1.176	-2.029	C.3	2	PTX1	0.000	
44	   C	6.548	-0.687	-1.505	C.2	2	PTX1	0.000	
45	   C	8.893	-1.062	-1.886	C.3	2	PTX1	0.000	
46	   C	9.306	-0.958	-0.405	C.3	2	PTX1	0.000	
47	   C	10.748	-1.444	-0.173	C.3	2	PTX1	0.000	
48	   C	11.716	-0.400	-0.793	C.3	2	PTX1	0.000	
49	   C	11.032	1.954	-0.662	C.2	2	PTX1	0.000	
50	   C	10.882	3.079	0.102	C.2	2	PTX1	0.000	
51	   C	10.364	4.219	-0.399	C.2	2	PTX1	0.000	
52	   C	10.227	5.310	0.371	C.2	2	PTX1	0.000	
53	   C	10.608	5.284	1.656	C.2	2	PTX1	0.000	
54	   C	11.125	4.157	2.167	C.2	2	PTX1	0.000	
55	   C	11.259	3.067	1.396	C.2	2	PTX1	0.000	
56	   C	13.215	-0.777	-0.896	C.3	2	PTX1	0.000	
57	   C	13.712	-1.220	-2.321	C.3	2	PTX1	0.000	
58	   C	13.099	-0.436	-3.505	C.3	2	PTX1	0.000	
59	   C	13.355	-2.732	-2.490	C.2	2	PTX1	0.000	
60	   C	11.992	-3.264	-3.012	C.3	2	PTX1	0.000	
61	   C	12.631	-3.875	-5.255	C.2	2	PTX1	0.000	
62	   C	12.381	-3.451	-6.689	C.3	2	PTX1	0.000	
63	   C	10.814	-2.675	-2.239	C.2	2	PTX1	0.000	
64	   C	9.803	-1.935	-2.762	C.2	2	PTX1	0.000	
65	   C	9.511	-1.763	-4.240	C.3	2	PTX1	0.000	
66	   C	10.800	-2.893	-0.726	C.3	2	PTX1	0.000	
67	   C	9.527	-3.751	-0.438	C.3	2	PTX1	0.000	
68	   C	11.864	-3.819	-0.074	C.3	2	PTX1	0.000	
69	   C	15.257	-1.077	-2.456	C.3	2	PTX1	0.000	
70	   C	16.028	-1.200	-1.146	C.3	2	PTX1	0.000	
71	   C	15.635	-0.140	-0.132	C.3	2	PTX1	0.000	
72	   C	14.482	1.484	-0.509	C.3	2	PTX1	0.000	
73	   C	14.127	0.085	0.002	C.3	2	PTX1	0.000	
74	   C	14.216	0.685	2.382	C.2	2	PTX1	0.000	
75	   C	13.476	0.285	3.645	C.3	2	PTX1	0.000	
76	   C	4.792	-2.537	-1.411	C.3	2	PTX1	0.000	
77	   C	5.906	-4.846	-1.368	C.2	2	PTX1	0.000	
78	   C	5.102	-5.468	-0.454	C.2	2	PTX1	0.000	
79	   C	5.624	-6.416	0.351	C.2	2	PTX1	0.000	
80	   C	4.881	-7.047	1.274	C.2	2	PTX1	0.000	
81	   C	3.581	-6.752	1.408	C.2	2	PTX1	0.000	
82	   C	3.035	-5.831	0.602	C.2	2	PTX1	0.000	
83	   C	3.788	-5.206	-0.317	C.2	2	PTX1	0.000	
84	   C	4.706	-2.396	0.100	C.2	2	PTX1	0.000	
85	   C	5.773	-2.591	0.896	C.2	2	PTX1	0.000	
86	   C	5.684	-2.454	2.227	C.2	2	PTX1	0.000	
87	   C	4.515	-2.114	2.790	C.2	2	PTX1	0.000	
88	   C	3.442	-1.910	2.012	C.2	2	PTX1	0.000	
89	   C	3.542	-2.050	0.681	C.2	2	PTX1	0.000	
90	   O	4.138	-0.273	-1.756	O.3	2	PTX1	0.000	
91	   O	6.706	0.234	-0.735	O.co2	2	PTX1	0.000	
92	   O	7.543	-1.422	-2.073	O.3	2	PTX1	0.000	
93	   O	10.994	-1.453	1.207	O.3	2	PTX1	0.000	
94	   O	11.565	0.813	-0.101	O.3	2	PTX1	0.000	
95	   O	10.694	1.957	-1.831	O.co2	2	PTX1	0.000	
96	   O	14.174	-3.563	-2.158	O.2	2	PTX1	0.000	
97	   O	11.904	-3.088	-4.415	O.3	2	PTX1	0.000	
98	   O	13.370	-4.771	-4.918	O.co2	2	PTX1	0.000	
99	   O	15.606	0.156	-3.049	O.3	2	PTX1	0.000	
100	   O	15.861	1.171	-0.597	O.3	2	PTX1	0.000	
101	   O	13.707	-0.014	1.331	O.3	2	PTX1	0.000	
102	   O	15.110	1.499	2.354	O.co2	2	PTX1	0.000	
103	   O	6.945	-5.356	-1.720	O.2	2	PTX1	0.000	
104	   H	5.270	-1.318	-3.131	 H	2	PTX1	0.000	
105	   H	9.003	-0.037	-2.320	 H	2	PTX1	0.000	
106	   H	9.193	0.084	-0.032	 H	2	PTX1	0.000	
107	   H	8.611	-1.524	0.253	 H	2	PTX1	0.000	
108	   H	10.920	-0.553	1.539	 H	2	PTX1	0.000	
109	   H	11.371	-0.241	-1.825	 H	2	PTX1	0.000	
110	   H	10.034	4.303	-1.447	 H	2	PTX1	0.000	
111	   H	9.802	6.236	-0.053	 H	2	PTX1	0.000	
112	   H	10.497	6.181	2.288	 H	2	PTX1	0.000	
113	   H	11.440	4.128	3.224	 H	2	PTX1	0.000	
114	   H	11.689	2.169	1.868	 H	2	PTX1	0.000	
115	   H	13.323	-1.699	-0.288	 H	2	PTX1	0.000	
116	   H	13.165	0.664	-3.361	 H	2	PTX1	0.000	
117	   H	13.603	-0.693	-4.464	 H	2	PTX1	0.000	
118	   H	12.028	-0.637	-3.687	 H	2	PTX1	0.000	
119	   H	11.926	-4.362	-2.821	 H	2	PTX1	0.000	
120	   H	12.680	-2.388	-6.836	 H	2	PTX1	0.000	
121	   H	12.971	-4.078	-7.395	 H	2	PTX1	0.000	
122	   H	11.302	-3.564	-6.944	 H	2	PTX1	0.000	
123	   H	10.203	-1.044	-4.728	 H	2	PTX1	0.000	
124	   H	9.515	-2.737	-4.775	 H	2	PTX1	0.000	
125	   H	8.487	-1.370	-4.419	 H	2	PTX1	0.000	
126	   H	9.311	-3.824	0.652	 H	2	PTX1	0.000	
127	   H	8.600	-3.402	-0.929	 H	2	PTX1	0.000	
128	   H	9.635	-4.790	-0.825	 H	2	PTX1	0.000	
129	   H	11.652	-3.966	1.009	 H	2	PTX1	0.000	
130	   H	11.878	-4.834	-0.530	 H	2	PTX1	0.000	
131	   H	12.915	-3.495	-0.091	 H	2	PTX1	0.000	
132	   H	15.647	-1.836	-3.178	 H	2	PTX1	0.000	
133	   H	16.394	0.518	-2.638	 H	2	PTX1	0.000	
134	   H	15.856	-2.200	-0.687	 H	2	PTX1	0.000	
135	   H	17.125	-1.128	-1.342	 H	2	PTX1	0.000	
136	   H	16.176	-0.286	0.829	 H	2	PTX1	0.000	
137	   H	14.303	2.333	0.181	 H	2	PTX1	0.000	
138	   H	14.077	1.711	-1.517	 H	2	PTX1	0.000	
139	   H	12.378	0.424	3.520	 H	2	PTX1	0.000	
140	   H	13.679	-0.783	3.887	 H	2	PTX1	0.000	
141	   H	13.803	0.906	4.510	 H	2	PTX1	0.000	
142	   H	3.806	-2.788	-1.867	 H	2	PTX1	0.000	
143	   H	6.491	-3.285	-2.478	 H	2	PTX1	0.000	
144	   H	6.690	-6.697	0.305	 H	2	PTX1	0.000	
145	   H	5.338	-7.808	1.928	 H	2	PTX1	0.000	
146	   H	2.965	-7.269	2.163	 H	2	PTX1	0.000	
147	   H	1.960	-5.600	0.687	 H	2	PTX1	0.000	
148	   H	3.257	-4.505	-0.973	 H	2	PTX1	0.000	
149	   H	6.745	-2.869	0.463	 H	2	PTX1	0.000	
150	   H	6.573	-2.621	2.859	 H	2	PTX1	0.000	
151	   H	4.438	-2.000	3.884	 H	2	PTX1	0.000	
152	   H	2.478	-1.627	2.466	 H	2	PTX1	0.000	
153	   H	2.648	-1.875	0.060	 H	2	PTX1	0.000	
@<TRIPOS>BOND
1 1 2 1
2 1 15 1
3 1 16 1
4 1 17 1
5 2 3 1
6 2 18 1
7 2 19 1
8 3 4 1
9 3 20 1
10 3 21 1
11 4 5 1
12 4 22 1
13 4 23 1
14 5 6 1
15 5 24 1
16 5 25 1
17 6 7 1
18 6 26 1
19 6 27 1
20 7 8 1
21 7 28 1
22 7 29 1
23 8 9 1
24 8 30 1
25 8 31 1
26 9 10 1
27 9 32 1
28 9 33 1
29 10 14 1
30 10 34 1
31 10 35 1
32 11 12 1
33 11 13 1
34 11 90 1
35 12 36 1
36 12 37 1
37 12 38 1
38 13 39 1
39 13 40 1
40 13 41 1
41 11 14 1
42 42 77 1
43 42 143 1
44 43 44 1
45 43 76 1
46 43 104 1
47 44 91 2
48 44 92 1
49 45 46 1
50 45 64 1
51 45 105 1
52 46 47 1
53 46 106 1
54 46 107 1
55 47 48 1
56 47 66 1
57 47 93 1
58 48 56 1
59 48 94 1
60 48 109 1
61 49 50 1
62 49 95 2
63 50 51 1
64 50 55 2
65 51 52 2
66 51 110 1
67 52 53 1
68 52 111 1
69 53 54 2
70 53 112 1
71 54 55 1
72 54 113 1
73 55 114 1
74 56 57 1
75 56 73 1
76 56 115 1
77 57 58 1
78 57 59 1
79 57 69 1
80 58 116 1
81 58 117 1
82 58 118 1
83 59 60 1
84 59 96 2
85 60 63 1
86 60 97 1
87 60 119 1
88 61 62 1
89 61 98 2
90 62 120 1
91 62 121 1
92 62 122 1
93 63 64 2
94 63 66 1
95 64 65 1
96 65 123 1
97 65 124 1
98 65 125 1
99 66 67 1
100 66 68 1
101 67 126 1
102 67 127 1
103 67 128 1
104 68 129 1
105 68 130 1
106 68 131 1
107 69 70 1
108 69 99 1
109 69 132 1
110 70 71 1
111 70 134 1
112 70 135 1
113 71 73 1
114 71 100 1
115 71 136 1
116 72 73 1
117 72 137 1
118 72 138 1
119 73 101 1
120 74 75 1
121 74 102 2
122 75 139 1
123 75 140 1
124 75 141 1
125 42 76 1
126 76 84 1
127 76 142 1
128 77 78 1
129 77 103 2
130 78 79 1
131 78 83 2
132 79 80 2
133 79 144 1
134 80 81 1
135 80 145 1
136 81 82 2
137 81 146 1
138 82 83 1
139 82 147 1
140 83 148 1
141 84 85 1
142 84 89 2
143 85 86 2
144 85 149 1
145 86 87 1
146 86 150 1
147 87 88 2
148 87 151 1
149 88 89 1
150 88 152 1
151 89 153 1
152 43 90 1
153 45 92 1
154 93 108 1
155 49 94 1
156 61 97 1
157 99 133 1
158 72 100 1
159 74 101 1
@<TRIPOS>SUBSTRUCTURE
1	PTL1	1	GROUP	1 ****	PTL
2	PTX1	42	GROUP	1 ****	PTX
