@<TRIPOS>MOLECULE
FUL 
176 180 0 0 0
SMALL
USER_CHARGES
#CGenFF output mol2 file
@<TRIPOS>ATOM
1	C1     8.3200    -3.9850    -3.6980	C.2	1	FUL1     0.0270
2	C2     8.0110    -5.7140    -5.3060	C.3	1	FUL1     0.1400
3	C3     6.4980    -5.6540    -5.2470	C.2	1	FUL1     0.0130
4	C4     5.7850    -6.5020    -4.4880	C.2	1	FUL1    -0.1180
5	C5     4.4500    -6.3960    -4.4110	C.2	1	FUL1    -0.1080
6	C6     3.7720    -5.4160    -5.0380	C.2	1	FUL1     0.2380
7	C7     1.8450    -4.4990    -3.9970	C.3	1	FUL1     0.3830
8	C8    -0.4300    -3.7790    -3.7390	C.3	1	FUL1     0.0360
9	C9    -1.8410    -4.3320    -3.8850	C.3	1	FUL1    -0.0090
10	C10    -4.0980    -3.7780    -3.6450	C.3	1	FUL1    -0.0090
11	C11    -5.0440    -2.6320    -3.2850	C.3	1	FUL1    -0.1800
12	C12    -6.5160    -3.0450    -3.4570	C.3	1	FUL1    -0.1800
13	C13    -7.4870    -1.8930    -3.1510	C.3	1	FUL1    -0.1800
14	C14    -8.9500    -2.3170    -3.3600	C.3	1	FUL1    -0.1800
15	C15    -9.9350    -1.1650    -3.1000	C.3	1	FUL1    -0.1800
16	C16   -11.3910    -1.5970    -3.3410	C.3	1	FUL1    -0.1800
17	C17   -12.3850    -0.4450    -3.1200	C.3	1	FUL1    -0.1800
18	C18   -13.8340    -0.8840    -3.3860	C.3	1	FUL1    -0.1800
19	C19   -14.8340     0.2680    -3.1970	C.3	1	FUL1    -0.1800
20	C20   -16.2780    -0.1760    -3.4830	C.3	1	FUL1    -0.1800
21	C21   -17.2820     0.9770    -3.3160	C.3	1	FUL1    -0.1800
22	C22   -18.7220     0.5310    -3.6160	C.3	1	FUL1    -0.1800
23	C23   -19.7270     1.6840    -3.4650	C.3	1	FUL1    -0.1800
24	C24   -21.1660     1.2360    -3.7730	C.3	1	FUL1    -0.1790
25	C25   -22.1710     2.3900    -3.6310	C.3	1	FUL1    -0.1810
26	C26   -23.6090     1.9410    -3.9410	C.3	1	FUL1    -0.1770
27	C27   -24.6100     3.0960    -3.8020	C.3	1	FUL1    -0.2730
28	C28     2.2430    -4.9560    -2.5980	C.3	1	FUL1    -0.2740
29	C29     2.2370    -3.0480    -4.2520	C.3	1	FUL1    -0.2740
30	C30     4.4890    -4.6440    -5.8770	C.2	1	FUL1    -0.1080
31	C31     5.8240    -4.7370    -5.9610	C.2	1	FUL1    -0.1180
32	O1     7.7720    -4.6730    -2.8610	O.2	1	FUL1    -0.3950
33	O2     8.5720    -4.4620    -4.9570	O.3	1	FUL1    -0.1340
34	O3     2.4040    -5.3400    -4.9890	O.3	1	FUL1    -0.4260
35	O4     0.4680    -4.7540    -4.2050	O.3	1	FUL1    -0.4030
36	O5    -2.7670    -3.3420    -3.5080	O.3	1	FUL1    -0.3420
37	H1     8.3230    -5.9360    -6.3530	H	1	FUL1     0.0900
38	H2     8.4480    -6.5070    -4.6590	H	1	FUL1     0.0900
39	H3     6.2970    -7.2930    -3.9150	H	1	FUL1     0.1150
40	H4     3.8950    -7.1240    -3.7950	H	1	FUL1     0.1150
41	H5    -0.2260    -3.5440    -2.6710	H	1	FUL1     0.0900
42	H6    -0.3410    -2.8590    -4.3600	H	1	FUL1     0.0900
43	H7    -2.0210    -4.6190    -4.9480	H	1	FUL1     0.0900
44	H8    -1.9690    -5.2280    -3.2340	H	1	FUL1     0.0900
45	H9    -4.2760    -4.0910    -4.7000	H	1	FUL1     0.0900
46	H10    -4.2730    -4.6460    -2.9670	H	1	FUL1     0.0900
47	H11    -4.8640    -2.3150    -2.2300	H	1	FUL1     0.0900
48	H12    -4.8260    -1.7550    -3.9410	H	1	FUL1     0.0900
49	H13    -6.6790    -3.3900    -4.5060	H	1	FUL1     0.0900
50	H14    -6.7390    -3.9070    -2.7840	H	1	FUL1     0.0900
51	H15    -7.3430    -1.5540    -2.0970	H	1	FUL1     0.0900
52	H16    -7.2550    -1.0280    -3.8160	H	1	FUL1     0.0900
53	H17    -9.0810    -2.6800    -4.4070	H	1	FUL1     0.0900
54	H18    -9.1900    -3.1690    -2.6800	H	1	FUL1     0.0900
55	H19    -9.8210    -0.8070    -2.0500	H	1	FUL1     0.0900
56	H20    -9.6880    -0.3100    -3.7740	H	1	FUL1     0.0900
57	H21   -11.4940    -1.9740    -4.3860	H	1	FUL1     0.0900
58	H22   -11.6440    -2.4410    -2.6560	H	1	FUL1     0.0900
59	H23   -12.2950    -0.0720    -2.0720	H	1	FUL1     0.0900
60	H24   -12.1250     0.4010    -3.8000	H	1	FUL1     0.0900
61	H25   -13.9150    -1.2720    -4.4300	H	1	FUL1     0.0900
62	H26   -14.0990    -1.7220    -2.6980	H	1	FUL1     0.0900
63	H27   -14.7640     0.6520    -2.1520	H	1	FUL1     0.0900
64	H28   -14.5640     1.1070    -3.8810	H	1	FUL1     0.0900
65	H29   -16.3430    -0.5710    -4.5240	H	1	FUL1     0.0900
66	H30   -16.5530    -1.0080    -2.7920	H	1	FUL1     0.0900
67	H31   -17.2250     1.3710    -2.2740	H	1	FUL1     0.0900
68	H32   -17.0030     1.8110    -4.0040	H	1	FUL1     0.0900
69	H33   -18.7750     0.1300    -4.6560	H	1	FUL1     0.0900
70	H34   -19.0040    -0.2980    -2.9240	H	1	FUL1     0.0900
71	H35   -19.6780     2.0840    -2.4250	H	1	FUL1     0.0900
72	H36   -19.4440     2.5140    -4.1560	H	1	FUL1     0.0900
73	H37   -21.2120     0.8310    -4.8120	H	1	FUL1     0.0900
74	H38   -21.4510     0.4090    -3.0800	H	1	FUL1     0.0900
75	H39   -22.1270     2.7940    -2.5920	H	1	FUL1     0.0900
76	H40   -21.8860     3.2170    -4.3240	H	1	FUL1     0.0900
77	H41   -23.6580     1.5360    -4.9800	H	1	FUL1     0.0900
78	H42   -23.9010     1.1160    -3.2480	H	1	FUL1     0.0900
79	H43   -25.6460     2.7560    -4.0290	H	1	FUL1     0.0900
80	H44   -24.6080     3.5070    -2.7660	H	1	FUL1     0.0900
81	H45   -24.3650     3.9270    -4.5020	H	1	FUL1     0.0900
82	H46     1.7380    -4.3540    -1.8100	H	1	FUL1     0.0900
83	H47     3.3360    -4.8440    -2.4210	H	1	FUL1     0.0900
84	H48     1.9740    -6.0230    -2.4240	H	1	FUL1     0.0900
85	H49     1.9270    -2.7080    -5.2660	H	1	FUL1     0.0900
86	H50     1.8030    -2.3550    -3.4970	H	1	FUL1     0.0900
87	H51     3.3380    -2.9040    -4.1720	H	1	FUL1     0.0900
88	H52     3.9700    -3.8940    -6.4980	H	1	FUL1     0.1150
89	H53     6.3720    -4.0490    -6.6260	H	1	FUL1     0.1150
90	C32     6.5100    -0.9260    -3.5330	C.3	1	FUL1    -0.2710
91	C33     6.8750    -1.5930    -2.1860	C.3	1	FUL1     0.0090
92	C34     5.7860    -2.6170    -1.8150	C.3	1	FUL1    -0.1890
93	C35     4.4580    -1.9450    -1.4080	C.3	1	FUL1    -0.1800
94	C36     4.6160    -0.9010    -0.2810	C.3	1	FUL1    -0.0850
95	C37     3.3210    -0.2230     0.1480	C.2	1	FUL1     0.0070
96	C38     3.2650     1.0960     0.4320	C.2	1	FUL1    -0.0030
97	C39     4.4760     2.0000     0.3410	C.3	1	FUL1    -0.1900
98	C40     5.8140     1.2430     0.3710	C.3	1	FUL1    -0.0890
99	C41     6.1920     0.7610     1.7860	C.3	1	FUL1    -0.1970
100	C42     6.6710     1.8900     2.7160	C.3	1	FUL1    -0.1920
101	C43     7.1730     1.3520     4.0660	C.3	1	FUL1    -0.1570
102	C44     7.6740     2.4800     4.9830	C.3	1	FUL1    -0.1800
103	C45     8.2220     1.9410     6.3150	C.3	1	FUL1    -0.1800
104	C46     8.7390     3.0710     7.2200	C.3	1	FUL1    -0.1800
105	C47     9.3180     2.5350     8.5400	C.3	1	FUL1    -0.1800
106	C48     9.8400     3.6680     9.4400	C.3	1	FUL1    -0.1890
107	C49    10.4470     3.1250    10.7430	C.3	1	FUL1    -0.0590
108	C50    12.2220     5.3700    11.1140	C.3	1	FUL1    -0.0590
109	C51    12.7270     6.5150    12.0090	C.3	1	FUL1    -0.1810
110	C52    13.8060     7.3580    11.3030	C.3	1	FUL1    -0.0660
111	C53    14.3170     8.4990    12.1320	C.3	1	FUL1     0.3400
112	C54    15.3630     9.3070    11.4320	C.3	1	FUL1     0.3320
113	C55     5.6970     0.1250    -0.6810	C.3	1	FUL1    -0.0940
114	C56     7.0010    -0.6200    -0.9920	C.3	1	FUL1    -0.1010
115	C57     8.2650     0.1860    -1.3000	C.3	1	FUL1    -0.1790
116	C58     9.1850    -0.8450    -1.9870	C.3	1	FUL1    -0.1790
117	C59     8.3330    -2.1060    -2.2260	C.3	1	FUL1     0.1910
118	C60     2.0950     1.6430     0.8120	C.2	1	FUL1    -0.1160
119	C61     0.9640     0.9320     0.9360	C.2	1	FUL1     0.1150
120	C62     1.0360    -0.3810     0.6730	C.2	1	FUL1    -0.1130
121	C63     2.1920    -0.9430     0.2920	C.2	1	FUL1    -0.1060
122	O6    11.1870     3.9740    13.2650	O.2	1	FUL1    -0.5490
123	O7     8.6930    -2.6960    -3.4380	O.3	1	FUL1    -0.1120
124	O8    -0.2060     1.5070     1.3240	O.3	1	FUL1    -0.5330
125	F1    14.9040     9.8080    10.3180	F	1	FUL1    -0.1400
126	F2    16.3910     8.5690    11.1090	F	1	FUL1    -0.1400
127	F3    15.8040    10.3000    12.1560	F	1	FUL1    -0.1400
128	F4    13.3140     9.2950    12.4610	F	1	FUL1    -0.1870
129	F5    14.8180     8.0430    13.2660	F	1	FUL1    -0.1870
130	S    10.9580     4.3860    11.8870	S.O	1	FUL1     0.3250
131	H54     5.5370    -0.3920    -3.5170	H	1	FUL1     0.0900
132	H55     7.2710    -0.1900    -3.8700	H	1	FUL1     0.0900
133	H56     6.4160    -1.6880    -4.3400	H	1	FUL1     0.0900
134	H57     6.1380    -3.2430    -0.9610	H	1	FUL1     0.0900
135	H58     5.6000    -3.3090    -2.6690	H	1	FUL1     0.0900
136	H59     3.7680    -2.7640    -1.1010	H	1	FUL1     0.0900
137	H60     3.9860    -1.4510    -2.2870	H	1	FUL1     0.0900
138	H61     4.9710    -1.4570     0.6220	H	1	FUL1     0.0900
139	H62     4.3850     2.5660    -0.6170	H	1	FUL1     0.0900
140	H63     4.4570     2.7630     1.1520	H	1	FUL1     0.0900
141	H64     6.6140     1.9490     0.0360	H	1	FUL1     0.0900
142	H65     5.3320     0.2360     2.2610	H	1	FUL1     0.0900
143	H66     7.0250     0.0240     1.7120	H	1	FUL1     0.0900
144	H67     7.5000     2.4500     2.2200	H	1	FUL1     0.0900
145	H68     5.8450     2.6140     2.9010	H	1	FUL1     0.0900
146	H69     6.3480     0.7970     4.5750	H	1	FUL1     0.0900
147	H70     8.0030     0.6270     3.8890	H	1	FUL1     0.0900
148	H71     8.4790     3.0480     4.4590	H	1	FUL1     0.0900
149	H72     6.8400     3.1920     5.1840	H	1	FUL1     0.0900
150	H73     7.4180     1.3780     6.8460	H	1	FUL1     0.0900
151	H74     9.0520     1.2250     6.1100	H	1	FUL1     0.0900
152	H75     9.5290     3.6450     6.6790	H	1	FUL1     0.0900
153	H76     7.9050     3.7790     7.4410	H	1	FUL1     0.0900
154	H77     8.5290     1.9620     9.0830	H	1	FUL1     0.0900
155	H78    10.1510     1.8280     8.3170	H	1	FUL1     0.0900
156	H79    10.6090     4.2460     8.8750	H	1	FUL1     0.0900
157	H80     9.0000     4.3640     9.6750	H	1	FUL1     0.0900
158	H81     9.6900     2.4920    11.2620	H	1	FUL1     0.0900
159	H82    11.3260     2.4790    10.5160	H	1	FUL1     0.0900
160	H83    11.8110     5.7970    10.1710	H	1	FUL1     0.0900
161	H84    13.0710     4.6980    10.8450	H	1	FUL1     0.0900
162	H85    13.1490     6.0940    12.9520	H	1	FUL1     0.0900
163	H86    11.8680     7.1700    12.2880	H	1	FUL1     0.0900
164	H87    13.3800     7.7530    10.3500	H	1	FUL1     0.0900
165	H88    14.6550     6.6880    11.0280	H	1	FUL1     0.0900
166	H89     5.3740     0.6270    -1.6240	H	1	FUL1     0.0900
167	H90     7.2450    -1.2330    -0.0870	H	1	FUL1     0.0900
168	H91     8.0220     1.0280    -1.9890	H	1	FUL1     0.0900
169	H92     8.7270     0.6170    -0.3820	H	1	FUL1     0.0900
170	H93    10.0700    -1.0860    -1.3530	H	1	FUL1     0.0900
171	H94     9.5710    -0.4270    -2.9450	H	1	FUL1     0.0900
172	H95     8.5310    -2.8120    -1.3840	H	1	FUL1     0.0900
173	H96     2.0500     2.7220     1.0350	H	1	FUL1     0.1150
174	H97    -0.8960     0.8240     1.3640	H	1	FUL1     0.4200
175	H98     0.1320    -1.0050     0.7770	H	1	FUL1     0.1150
176	H99     2.1870    -2.0280     0.1090	H	1	FUL1     0.1150
@<TRIPOS>BOND
1	1	32	2
2	1	33	1
3	2	3	1
4	2	37	1
5	2	38	1
6	3	4	1
7	3	31	2
8	4	5	2
9	4	39	1
10	5	6	1
11	5	40	1
12	6	30	2
13	6	34	1
14	7	28	1
15	7	29	1
16	7	35	1
17	8	9	1
18	8	41	1
19	8	42	1
20	9	36	1
21	9	43	1
22	9	44	1
23	10	11	1
24	10	45	1
25	10	46	1
26	11	12	1
27	11	47	1
28	11	48	1
29	12	13	1
30	12	49	1
31	12	50	1
32	13	14	1
33	13	51	1
34	13	52	1
35	14	15	1
36	14	53	1
37	14	54	1
38	15	16	1
39	15	55	1
40	15	56	1
41	16	17	1
42	16	57	1
43	16	58	1
44	17	18	1
45	17	59	1
46	17	60	1
47	18	19	1
48	18	61	1
49	18	62	1
50	19	20	1
51	19	63	1
52	19	64	1
53	20	21	1
54	20	65	1
55	20	66	1
56	21	22	1
57	21	67	1
58	21	68	1
59	22	23	1
60	22	69	1
61	22	70	1
62	23	24	1
63	23	71	1
64	23	72	1
65	24	25	1
66	24	73	1
67	24	74	1
68	25	26	1
69	25	75	1
70	25	76	1
71	26	27	1
72	26	77	1
73	26	78	1
74	27	79	1
75	27	80	1
76	27	81	1
77	28	82	1
78	28	83	1
79	28	84	1
80	29	85	1
81	29	86	1
82	29	87	1
83	30	31	1
84	30	88	1
85	31	89	1
86	2	33	1
87	7	34	1
88	8	35	1
89	10	36	1
90	90	91	1
91	90	131	1
92	90	132	1
93	90	133	1
94	91	92	1
95	91	114	1
96	91	117	1
97	92	93	1
98	92	134	1
99	92	135	1
100	93	94	1
101	93	136	1
102	93	137	1
103	94	95	1
104	94	113	1
105	94	138	1
106	95	96	2
107	95	121	1
108	96	97	1
109	96	118	1
110	97	98	1
111	97	139	1
112	97	140	1
113	98	99	1
114	98	113	1
115	98	141	1
116	99	100	1
117	99	142	1
118	99	143	1
119	100	101	1
120	100	144	1
121	100	145	1
122	101	102	1
123	101	146	1
124	101	147	1
125	102	103	1
126	102	148	1
127	102	149	1
128	103	104	1
129	103	150	1
130	103	151	1
131	104	105	1
132	104	152	1
133	104	153	1
134	105	106	1
135	105	154	1
136	105	155	1
137	106	107	1
138	106	156	1
139	106	157	1
140	107	130	1
141	107	158	1
142	107	159	1
143	108	109	1
144	108	160	1
145	108	161	1
146	109	110	1
147	109	162	1
148	109	163	1
149	110	111	1
150	110	164	1
151	110	165	1
152	111	112	1
153	111	128	1
154	111	129	1
155	112	125	1
156	112	126	1
157	112	127	1
158	113	114	1
159	113	166	1
160	114	115	1
161	114	167	1
162	115	116	1
163	115	168	1
164	115	169	1
165	116	117	1
166	116	170	1
167	116	171	1
168	117	123	1
169	117	172	1
170	118	119	2
171	118	173	1
172	119	120	1
173	119	124	1
174	120	121	2
175	120	175	1
176	121	176	1
177	1	123	1
178	124	174	1
179	108	130	1
180	122	130	2
