@<TRIPOS>MOLECULE
PTX 
147 153 0 0 0
SMALL
USER_CHARGES
#CGenFF output mol2 file
@<TRIPOS>ATOM
1	C1     0.0030     7.5690     8.1320	C.3	1	PTX1    -0.0980
2	C2     0.5600     6.4950     6.1300	C.3	1	PTX1    -0.0090
3	C3     1.7410     6.0780     5.2670	C.3	1	PTX1    -0.0090
4	C4     2.2840     4.9770     3.2740	C.3	1	PTX1    -0.0090
5	C5     1.6610     4.2590     2.0860	C.3	1	PTX1    -0.0090
6	C6     2.2010     3.0890     0.1330	C.3	1	PTX1    -0.0090
7	C7     3.3790     2.5770    -0.6820	C.3	1	PTX1     0.0360
8	C8     3.8090     1.0170    -2.4470	C.3	1	PTX1     0.3910
9	C9     3.0690     0.4670    -3.6670	C.3	1	PTX1    -0.2690
10	C10     5.0410     1.7980    -2.8890	C.3	1	PTX1    -0.2690
11	O1     1.0440     7.1540     7.2740	O.3	1	PTX1    -0.3430
12	O2     1.2540     5.4120     4.1270	O.3	1	PTX1    -0.3420
13	O3     2.6910     3.7920     1.2490	O.3	1	PTX1    -0.3420
14	O4     2.8770     1.8400    -1.7710	O.3	1	PTX1    -0.4020
15	H1     0.4620     8.0790     9.0080	H	1	PTX1     0.0900
16	H2    -0.6650     8.2880     7.6090	H	1	PTX1     0.0900
17	H3    -0.5740     6.6880     8.4930	H	1	PTX1     0.0900
18	H4    -0.0210     5.5950     6.4390	H	1	PTX1     0.0900
19	H5    -0.1040     7.1850     5.5580	H	1	PTX1     0.0900
20	H6     2.3190     6.9770     4.9520	H	1	PTX1     0.0900
21	H7     2.4050     5.3910     5.8410	H	1	PTX1     0.0900
22	H8     2.8730     5.8560     2.9230	H	1	PTX1     0.0900
23	H9     2.9530     4.2790     3.8280	H	1	PTX1     0.0900
24	H10     1.0540     3.3960     2.4440	H	1	PTX1     0.0900
25	H11     1.0080     4.9600     1.5150	H	1	PTX1     0.0900
26	H12     1.5850     2.2270     0.4810	H	1	PTX1     0.0900
27	H13     1.5710     3.7680    -0.4870	H	1	PTX1     0.0900
28	H14     3.9730     3.4410    -1.0590	H	1	PTX1     0.0900
29	H15     4.0180     1.9380    -0.0320	H	1	PTX1     0.0900
30	H16     3.7130    -0.1760    -4.3070	H	1	PTX1     0.0900
31	H17     2.7010     1.2960    -4.3140	H	1	PTX1     0.0900
32	H18     2.1830    -0.1380    -3.3660	H	1	PTX1     0.0900
33	H19     4.7400     2.6780    -3.5020	H	1	PTX1     0.0900
34	H20     5.6500     2.1860    -2.0460	H	1	PTX1     0.0900
35	H21     5.7160     1.1880    -3.5280	H	1	PTX1     0.0900
36	N     5.6970    -3.3100    -1.6590	N.pl3	1	PTX1    -0.4040
37	C11     5.1120    -0.9230    -1.8190	C.3	1	PTX1     0.1830
38	C12     6.4650    -0.4300    -1.2850	C.2	1	PTX1     0.8500
39	C13     8.8150    -0.7820    -1.6600	C.3	1	PTX1     0.2720
40	C14     9.2200    -0.6920    -0.1760	C.3	1	PTX1    -0.2120
41	C15    10.6660    -1.1680     0.0560	C.3	1	PTX1     0.1860
42	C16    11.6270    -0.1090    -0.5490	C.3	1	PTX1     0.1330
43	C17    10.9220     2.2380    -0.3960	C.2	1	PTX1     0.4590
44	C18    10.7530     3.3520     0.3800	C.2	1	PTX1     0.0860
45	C19    10.2270     4.4910    -0.1110	C.2	1	PTX1    -0.1100
46	C20    10.0720     5.5720     0.6720	C.2	1	PTX1    -0.1140
47	C21    10.4420     5.5330     1.9600	C.2	1	PTX1    -0.1150
48	C22    10.9660     4.4060     2.4610	C.2	1	PTX1    -0.1140
49	C23    11.1190     3.3270     1.6770	C.2	1	PTX1    -0.1100
50	C24    13.1300    -0.4710    -0.6490	C.3	1	PTX1    -0.0740
51	C25    13.6360    -0.8940    -2.0770	C.3	1	PTX1     0.0810
52	C26    13.0210    -0.1020    -3.2550	C.3	1	PTX1    -0.2630
53	C27    13.2930    -2.4060    -2.2660	C.2	1	PTX1     0.2970
54	C28    11.9370    -2.9450    -2.7990	C.3	1	PTX1     0.4320
55	C29    12.5890    -3.5240    -5.0460	C.2	1	PTX1     0.8340
56	C30    12.3410    -3.0860    -6.4760	C.3	1	PTX1    -0.3110
57	C31    10.7500    -2.3740    -2.0240	C.2	1	PTX1    -0.1130
58	C32     9.7350    -1.6380    -2.5420	C.2	1	PTX1    -0.1530
59	C33     9.4470    -1.4510    -4.0190	C.3	1	PTX1    -0.2650
60	C34    10.7330    -2.6100    -0.5140	C.3	1	PTX1     0.0160
61	C35     9.4660    -3.4830    -0.2410	C.3	1	PTX1    -0.2690
62	C36    11.8020    -3.5330     0.1320	C.3	1	PTX1    -0.2690
63	C37    15.1800    -0.7360    -2.2050	C.3	1	PTX1     0.1660
64	C38    15.9480    -0.8670    -0.8930	C.3	1	PTX1    -0.2010
65	C39    15.5410     0.1780     0.1310	C.3	1	PTX1     0.0150
66	C40    14.3750     1.7960    -0.2330	C.3	1	PTX1    -0.1060
67	C41    14.0300     0.3890     0.2610	C.3	1	PTX1     0.3660
68	C42    14.1040     0.9640     2.6480	C.2	1	PTX1     0.8850
69	C43    13.3610     0.5450     3.9040	C.3	1	PTX1    -0.3130
70	C44     4.7250    -2.2980    -1.2250	C.3	1	PTX1     0.1270
71	C45     5.8610    -4.5960    -1.2140	C.2	1	PTX1     0.3410
72	C46     5.0590    -5.2390    -0.3140	C.2	1	PTX1    -0.1370
73	C47     5.5880    -6.1940     0.4800	C.2	1	PTX1    -0.0240
74	C48     4.8460    -6.8460     1.3900	C.2	1	PTX1    -0.1090
75	C49     3.5430    -6.5660     1.5230	C.2	1	PTX1    -0.1150
76	C50     2.9920    -5.6390     0.7280	C.2	1	PTX1    -0.1090
77	C51     3.7420    -4.9930    -0.1790	C.2	1	PTX1    -0.0240
78	C52     4.6310    -2.1830     0.2870	C.2	1	PTX1    -0.0400
79	C53     5.6970    -2.3780     1.0840	C.2	1	PTX1    -0.1060
80	C54     5.6010    -2.2660     2.4180	C.2	1	PTX1    -0.1150
81	C55     4.4260    -1.9500     2.9810	C.2	1	PTX1    -0.1150
82	C56     3.3530    -1.7460     2.2010	C.2	1	PTX1    -0.1150
83	C57     3.4610    -1.8600     0.8690	C.2	1	PTX1    -0.1060
84	O5     4.0520    -0.0330    -1.5360	O.3	1	PTX1    -0.5060
85	O6     6.6120     0.4840    -0.5050	O.co2	1	PTX1    -0.6230
86	O7     7.4680    -1.1510    -1.8570	O.3	1	PTX1    -0.4320
87	O8    10.9060    -1.1910     1.4370	O.3	1	PTX1    -0.4600
88	O9    11.4620     1.0960     0.1560	O.3	1	PTX1    -0.3100
89	O10    10.5950     2.2520    -1.5670	O.co2	1	PTX1    -0.4960
90	O11    14.1180    -3.2350    -1.9390	O.2	1	PTX1    -0.5150
91	O12    11.8520    -2.7530    -4.2000	O.3	1	PTX1    -0.4270
92	O13    13.3340    -4.4180    -4.7160	O.co2	1	PTX1    -0.6250
93	O14    15.5220     0.5070    -2.7820	O.3	1	PTX1    -0.6420
94	O15    15.7570     1.4960    -0.3180	O.3	1	PTX1    -0.3430
95	O16    13.6050     0.2720     1.5870	O.3	1	PTX1    -0.4220
96	O17    14.9910     1.7850     2.6320	O.co2	1	PTX1    -0.6170
97	O18     6.9060    -5.0900    -1.5690	O.2	1	PTX1    -0.4580
98	H22     5.1980    -1.0470    -2.9230	H	1	PTX1     0.0900
99	H23     8.9180     0.2490    -2.0820	H	1	PTX1     0.0900
100	H24     9.0970     0.3450     0.2080	H	1	PTX1     0.0900
101	H25     8.5280    -1.2710     0.4720	H	1	PTX1     0.0900
102	H26    10.8210    -0.2950     1.7790	H	1	PTX1     0.2920
103	H27    11.2850     0.0580    -1.5800	H	1	PTX1     0.0900
104	H28     9.9050     4.5850    -1.1610	H	1	PTX1     0.1150
105	H29     9.6400     6.4980     0.2550	H	1	PTX1     0.1150
106	H30    10.3150     6.4210     2.6020	H	1	PTX1     0.1150
107	H31    11.2730     4.3670     3.5200	H	1	PTX1     0.1150
108	H32    11.5550     2.4280     2.1420	H	1	PTX1     0.1150
109	H33    13.2440    -1.3990    -0.0520	H	1	PTX1     0.0900
110	H34    13.0780     0.9980    -3.0990	H	1	PTX1     0.0900
111	H35    13.5320    -0.3430    -4.2150	H	1	PTX1     0.0900
112	H36    11.9530    -0.3090    -3.4450	H	1	PTX1     0.0900
113	H37    11.8790    -4.0450    -2.6210	H	1	PTX1     0.0900
114	H38    12.6320    -2.0190    -6.6090	H	1	PTX1     0.0900
115	H39    12.9400    -3.6990    -7.1870	H	1	PTX1     0.0900
116	H40    11.2650    -3.2040    -6.7360	H	1	PTX1     0.0900
117	H41    10.1350    -0.7200    -4.4960	H	1	PTX1     0.0900
118	H42     9.4620    -2.4180    -4.5660	H	1	PTX1     0.0900
119	H43     8.4200    -1.0660    -4.1990	H	1	PTX1     0.0900
120	H44     9.2460    -3.5700     0.8480	H	1	PTX1     0.0900
121	H45     8.5380    -3.1360    -0.7320	H	1	PTX1     0.0900
122	H46     9.5850    -4.5160    -0.6390	H	1	PTX1     0.0900
123	H47    11.5870    -3.6950     1.2130	H	1	PTX1     0.0900
124	H48    11.8270    -4.5430    -0.3360	H	1	PTX1     0.0900
125	H49    12.8500    -3.2000     0.1240	H	1	PTX1     0.0900
126	H50    15.5800    -1.4830    -2.9330	H	1	PTX1     0.0900
127	H51    16.3040     0.8710    -2.3620	H	1	PTX1     0.4000
128	H52    15.7820    -1.8740    -0.4450	H	1	PTX1     0.0900
129	H53    17.0440    -0.7830    -1.0830	H	1	PTX1     0.0900
130	H54    16.0790     0.0270     1.0930	H	1	PTX1     0.0900
131	H55    14.1860     2.6360     0.4660	H	1	PTX1     0.0900
132	H56    13.9720     2.0310    -1.2400	H	1	PTX1     0.0900
133	H57    12.2630     0.6750     3.7750	H	1	PTX1     0.0900
134	H58    13.5730    -0.5240     4.1350	H	1	PTX1     0.0900
135	H59    13.6800     1.1590     4.7760	H	1	PTX1     0.0900
136	H60     3.7430    -2.5500    -1.6900	H	1	PTX1     0.0900
137	H61     6.4340    -3.0130    -2.2990	H	1	PTX1     0.2740
138	H62     6.6570    -6.4630     0.4350	H	1	PTX1     0.1150
139	H63     5.3090    -7.6120     2.0360	H	1	PTX1     0.1150
140	H64     2.9290    -7.1010     2.2670	H	1	PTX1     0.1150
141	H65     1.9130    -5.4210     0.8110	H	1	PTX1     0.1150
142	H66     3.2070    -4.2890    -0.8270	H	1	PTX1     0.1150
143	H67     6.6740    -2.6380     0.6500	H	1	PTX1     0.1150
144	H68     6.4890    -2.4340     3.0500	H	1	PTX1     0.1150
145	H69     4.3420    -1.8560     4.0760	H	1	PTX1     0.1150
146	H70     2.3840    -1.4820     2.6570	H	1	PTX1     0.1150
147	H71     2.5670    -1.6860     0.2470	H	1	PTX1     0.1150
@<TRIPOS>BOND
1	1	11	1
2	1	15	1
3	1	16	1
4	1	17	1
5	2	3	1
6	2	18	1
7	2	19	1
8	3	12	1
9	3	20	1
10	3	21	1
11	4	5	1
12	4	22	1
13	4	23	1
14	5	13	1
15	5	24	1
16	5	25	1
17	6	7	1
18	6	26	1
19	6	27	1
20	7	14	1
21	7	28	1
22	7	29	1
23	8	9	1
24	8	10	1
25	8	84	1
26	9	30	1
27	9	31	1
28	9	32	1
29	10	33	1
30	10	34	1
31	10	35	1
32	2	11	1
33	4	12	1
34	6	13	1
35	8	14	1
36	36	71	1
37	36	137	1
38	37	38	1
39	37	70	1
40	37	98	1
41	38	85	2
42	38	86	1
43	39	40	1
44	39	58	1
45	39	99	1
46	40	41	1
47	40	100	1
48	40	101	1
49	41	42	1
50	41	60	1
51	41	87	1
52	42	50	1
53	42	88	1
54	42	103	1
55	43	44	1
56	43	89	2
57	44	45	1
58	44	49	2
59	45	46	2
60	45	104	1
61	46	47	1
62	46	105	1
63	47	48	2
64	47	106	1
65	48	49	1
66	48	107	1
67	49	108	1
68	50	51	1
69	50	67	1
70	50	109	1
71	51	52	1
72	51	53	1
73	51	63	1
74	52	110	1
75	52	111	1
76	52	112	1
77	53	54	1
78	53	90	2
79	54	57	1
80	54	91	1
81	54	113	1
82	55	56	1
83	55	92	2
84	56	114	1
85	56	115	1
86	56	116	1
87	57	58	2
88	57	60	1
89	58	59	1
90	59	117	1
91	59	118	1
92	59	119	1
93	60	61	1
94	60	62	1
95	61	120	1
96	61	121	1
97	61	122	1
98	62	123	1
99	62	124	1
100	62	125	1
101	63	64	1
102	63	93	1
103	63	126	1
104	64	65	1
105	64	128	1
106	64	129	1
107	65	67	1
108	65	94	1
109	65	130	1
110	66	67	1
111	66	131	1
112	66	132	1
113	67	95	1
114	68	69	1
115	68	96	2
116	69	133	1
117	69	134	1
118	69	135	1
119	36	70	1
120	70	78	1
121	70	136	1
122	71	72	1
123	71	97	2
124	72	73	1
125	72	77	2
126	73	74	2
127	73	138	1
128	74	75	1
129	74	139	1
130	75	76	2
131	75	140	1
132	76	77	1
133	76	141	1
134	77	142	1
135	78	79	1
136	78	83	2
137	79	80	2
138	79	143	1
139	80	81	1
140	80	144	1
141	81	82	2
142	81	145	1
143	82	83	1
144	82	146	1
145	83	147	1
146	37	84	1
147	39	86	1
148	87	102	1
149	43	88	1
150	55	91	1
151	93	127	1
152	66	94	1
153	68	95	1
