@<TRIPOS>MOLECULE
PTX 
133 140 0 0 0
SMALL
USER_CHARGES
#CGenFF output mol2 file
@<TRIPOS>ATOM
1	C1    -0.4080    -0.5620     4.4120	C.3	1	PTX1    -0.0910
2	C2    -0.5270     0.5630     2.2930	C.3	1	PTX1     0.2630
3	C3    -1.6510     1.0700     1.3810	C.3	1	PTX1    -0.2690
4	C4     0.4210     1.6690     2.7750	C.2	1	PTX1     0.0850
5	C5     0.0330     2.9570     2.8550	C.2	1	PTX1    -0.1100
6	C6     0.8640     3.9220     3.2800	C.2	1	PTX1    -0.1150
7	C7     2.1160     3.6190     3.6510	C.2	1	PTX1    -0.1150
8	C8     2.5210     2.3430     3.5950	C.2	1	PTX1    -0.1150
9	C9     1.6820     1.3900     3.1610	C.2	1	PTX1    -0.1100
10	O1    -1.2180    -0.0570     3.3740	O.3	1	PTX1    -0.3560
11	H1    -1.0710    -1.1050     5.1220	H	1	PTX1     0.0900
12	H2     0.3420    -1.2840     4.0220	H	1	PTX1     0.0900
13	H3     0.0760     0.2670     4.9710	H	1	PTX1     0.0900
14	H4    -1.2850     1.6890     0.5320	H	1	PTX1     0.0900
15	H5    -2.3960     1.6820     1.9370	H	1	PTX1     0.0900
16	H6    -2.2350     0.2240     0.9530	H	1	PTX1     0.0900
17	H7    -0.9870     3.2600     2.5760	H	1	PTX1     0.1150
18	H8     0.5170     4.9680     3.3320	H	1	PTX1     0.1150
19	H9     2.8000     4.4070     4.0060	H	1	PTX1     0.1150
20	H10     3.5440     2.0800     3.9120	H	1	PTX1     0.1150
21	H11     2.0550     0.3540     3.1420	H	1	PTX1     0.1150
22	N     0.9930    -0.6570    -1.9440	N.pl3	1	PTX1    -0.4040
23	C10     0.8200    -0.1910     0.4430	C.3	1	PTX1     0.1820
24	C11     2.3090    -0.5650     0.5390	C.2	1	PTX1     0.8500
25	C12     4.4630     0.3860    -0.1250	C.3	1	PTX1     0.2720
26	C13     5.1090     1.4490     0.7830	C.3	1	PTX1    -0.2120
27	C14     6.5430     1.0570     1.1990	C.3	1	PTX1     0.1860
28	C15     7.4650     1.2180    -0.0380	C.3	1	PTX1     0.1330
29	C16     7.0140     3.1280    -1.5170	C.2	1	PTX1     0.4590
30	C17     7.1620     4.4660    -1.7630	C.2	1	PTX1     0.0860
31	C18     6.6860     5.0440    -2.8840	C.2	1	PTX1    -0.1100
32	C19     6.8450     6.3600    -3.1020	C.2	1	PTX1    -0.1140
33	C20     7.4830     7.1230    -2.2030	C.2	1	PTX1    -0.1150
34	C21     7.9600     6.5620    -1.0830	C.2	1	PTX1    -0.1140
35	C22     7.7990     5.2470    -0.8670	C.2	1	PTX1    -0.1100
36	C23     8.8940     0.6230     0.0410	C.3	1	PTX1    -0.0740
37	C24     9.1100    -0.7520    -0.6950	C.3	1	PTX1     0.0810
38	C25     8.3380    -0.9130    -2.0250	C.3	1	PTX1    -0.2630
39	C26     8.6550    -1.8930     0.2720	C.2	1	PTX1     0.2970
40	C27     7.1950    -2.4020     0.4240	C.3	1	PTX1     0.4320
41	C28     7.3370    -4.5340    -0.7000	C.2	1	PTX1     0.8340
42	C29     6.8710    -5.2000    -1.9800	C.3	1	PTX1    -0.3110
43	C30     6.1930    -1.2700     0.6390	C.2	1	PTX1    -0.1130
44	C31     5.1500    -0.9760    -0.1780	C.2	1	PTX1    -0.1530
45	C32     4.6560    -1.8310    -1.3280	C.3	1	PTX1    -0.2650
46	C33     6.4380    -0.3530     1.8430	C.3	1	PTX1     0.0160
47	C34     5.2180    -0.5120     2.8040	C.3	1	PTX1    -0.2690
48	C35     7.5580    -0.7300     2.8550	C.3	1	PTX1    -0.2690
49	C36    10.6100    -0.9880    -1.0380	C.3	1	PTX1     0.1660
50	C37    11.5970    -0.3220    -0.0840	C.3	1	PTX1    -0.2010
51	C38    11.4520     1.1890    -0.0550	C.3	1	PTX1     0.0150
52	C39    10.3530     2.2970    -1.3480	C.3	1	PTX1    -0.1060
53	C40    10.0070     1.6910     0.0150	C.3	1	PTX1     0.3660
54	C41    10.5560     3.7080     1.3060	C.2	1	PTX1     0.8850
55	C42    10.0330     4.3880     2.5590	C.3	1	PTX1    -0.3130
56	C43     0.1590    -0.9040    -0.7580	C.3	1	PTX1     0.1270
57	C44     0.9430    -1.2700    -3.1680	C.2	1	PTX1     0.3410
58	C45    -0.0340    -2.1300    -3.5840	C.2	1	PTX1    -0.1370
59	C46     0.2670    -3.1010    -4.4710	C.2	1	PTX1    -0.0240
60	C47    -0.6560    -3.9770    -4.8980	C.2	1	PTX1    -0.1090
61	C48    -1.9180    -3.8950    -4.4550	C.2	1	PTX1    -0.1150
62	C49    -2.2450    -2.9220    -3.5940	C.2	1	PTX1    -0.1090
63	C50    -1.3140    -2.0510    -3.1730	C.2	1	PTX1    -0.0240
64	C51    -0.0280    -2.3890    -0.4910	C.2	1	PTX1    -0.0400
65	C52     0.9380    -3.2920    -0.7460	C.2	1	PTX1    -0.1060
66	C53     0.7520    -4.5990    -0.5090	C.2	1	PTX1    -0.1150
67	C54    -0.4130    -5.0320    -0.0060	C.2	1	PTX1    -0.1150
68	C55    -1.3860    -4.1480     0.2570	C.2	1	PTX1    -0.1150
69	C56    -1.1900    -2.8420     0.0160	C.2	1	PTX1    -0.1060
70	O2     0.1410    -0.5110     1.6420	O.3	1	PTX1    -0.4800
71	O3     2.7160    -1.5930     1.0310	O.co2	1	PTX1    -0.6230
72	O4     3.0560     0.4210    -0.0310	O.3	1	PTX1    -0.4320
73	O5     6.9920     1.9760     2.1590	O.3	1	PTX1    -0.4600
74	O6     7.5240     2.5860    -0.3590	O.3	1	PTX1    -0.3100
75	O7     6.4370     2.4180    -2.3180	O.co2	1	PTX1    -0.4960
76	O8     9.4850    -2.4090     0.9930	O.2	1	PTX1    -0.5150
77	O9     6.8710    -3.2560    -0.6600	O.3	1	PTX1    -0.4270
78	O10     8.0180    -5.0650     0.1460	O.co2	1	PTX1    -0.6250
79	O11    10.9100    -0.5490    -2.3460	O.3	1	PTX1    -0.6420
80	O12    11.6730     1.7840    -1.3130	O.3	1	PTX1    -0.3430
81	O13     9.8250     2.5840     1.0760	O.3	1	PTX1    -0.4220
82	O14    11.4760     4.1310     0.6450	O.co2	1	PTX1    -0.6170
83	O15     1.9510    -1.1170    -3.8200	O.2	1	PTX1    -0.4580
84	H12     0.7810     0.9090     0.2740	H	1	PTX1     0.0900
85	H13     4.6620     0.7670    -1.1620	H	1	PTX1     0.0900
86	H14     5.0830     2.4470     0.2890	H	1	PTX1     0.0900
87	H15     4.4870     1.6380     1.6840	H	1	PTX1     0.0900
88	H16     7.0880     2.8380     1.7420	H	1	PTX1     0.2920
89	H17     6.9640     0.6970    -0.8670	H	1	PTX1     0.0900
90	H18     6.1540     4.4700    -3.6600	H	1	PTX1     0.1150
91	H19     6.4500     6.8180    -4.0250	H	1	PTX1     0.1150
92	H20     7.6130     8.2030    -2.3820	H	1	PTX1     0.1150
93	H21     8.4850     7.1830    -0.3380	H	1	PTX1     0.1150
94	H22     8.2080     4.8400     0.0710	H	1	PTX1     0.1150
95	H23     9.0380     0.3650     1.1090	H	1	PTX1     0.0900
96	H24     8.4820    -0.0450    -2.7050	H	1	PTX1     0.0900
97	H25     8.6500    -1.8350    -2.5670	H	1	PTX1     0.0900
98	H26     7.2460    -1.0120    -1.9080	H	1	PTX1     0.0900
99	H27     7.1140    -3.0140     1.3530	H	1	PTX1     0.0900
100	H28     7.2520    -4.6430    -2.8660	H	1	PTX1     0.0900
101	H29     7.2470    -6.2460    -2.0410	H	1	PTX1     0.0900
102	H30     5.7590    -5.2290    -2.0200	H	1	PTX1     0.0900
103	H31     5.3460    -1.8390    -2.1980	H	1	PTX1     0.0900
104	H32     4.4380    -2.8700    -0.9980	H	1	PTX1     0.0900
105	H33     3.6910    -1.4570    -1.7290	H	1	PTX1     0.0900
106	H34     5.2760     0.1870     3.6690	H	1	PTX1     0.0900
107	H35     4.2270    -0.3390     2.3540	H	1	PTX1     0.0900
108	H36     5.1410    -1.5470     3.2090	H	1	PTX1     0.0900
109	H37     7.5930    -0.0120     3.7050	H	1	PTX1     0.0900
110	H38     7.3980    -1.7360     3.3040	H	1	PTX1     0.0900
111	H39     8.5990    -0.7660     2.5030	H	1	PTX1     0.0900
112	H40    10.8260    -2.0840    -1.0730	H	1	PTX1     0.0900
113	H41    11.7830    -0.1500    -2.3780	H	1	PTX1     0.4000
114	H42    11.4530    -0.7030     0.9520	H	1	PTX1     0.0900
115	H43    12.6420    -0.5820    -0.3740	H	1	PTX1     0.0900
116	H44    12.1440     1.6420     0.6900	H	1	PTX1     0.0900
117	H45    10.3520     3.4030    -1.4240	H	1	PTX1     0.0900
118	H46     9.7910     1.8490    -2.1940	H	1	PTX1     0.0900
119	H47     8.9410     4.5890     2.4720	H	1	PTX1     0.0900
120	H48    10.2110     3.7410     3.4480	H	1	PTX1     0.0900
121	H49    10.5490     5.3590     2.7280	H	1	PTX1     0.0900
122	H50    -0.8180    -0.3910    -0.9060	H	1	PTX1     0.0900
123	H51     1.8120    -0.0590    -1.8250	H	1	PTX1     0.2740
124	H52     1.2900    -3.2330    -4.8650	H	1	PTX1     0.1150
125	H53    -0.3790    -4.7700    -5.6130	H	1	PTX1     0.1150
126	H54    -2.6810    -4.6100    -4.8050	H	1	PTX1     0.1150
127	H55    -3.2880    -2.8290    -3.2450	H	1	PTX1     0.1150
128	H56    -1.6680    -1.2500    -2.5120	H	1	PTX1     0.1150
129	H57     1.9050    -2.9720    -1.1620	H	1	PTX1     0.1150
130	H58     1.5580    -5.3200    -0.7290	H	1	PTX1     0.1150
131	H59    -0.5700    -6.1060     0.1890	H	1	PTX1     0.1150
132	H60    -2.3480    -4.4940     0.6700	H	1	PTX1     0.1150
133	H61    -2.0060    -2.1350     0.2380	H	1	PTX1     0.1150
@<TRIPOS>BOND
1	1	10	1
2	1	11	1
3	1	12	1
4	1	13	1
5	2	3	1
6	2	4	1
7	2	70	1
8	3	14	1
9	3	15	1
10	3	16	1
11	4	5	1
12	4	9	2
13	5	6	2
14	5	17	1
15	6	7	1
16	6	18	1
17	7	8	2
18	7	19	1
19	8	9	1
20	8	20	1
21	9	21	1
22	2	10	1
23	22	57	1
24	22	123	1
25	23	24	1
26	23	56	1
27	23	84	1
28	24	71	2
29	24	72	1
30	25	26	1
31	25	44	1
32	25	85	1
33	26	27	1
34	26	86	1
35	26	87	1
36	27	28	1
37	27	46	1
38	27	73	1
39	28	36	1
40	28	74	1
41	28	89	1
42	29	30	1
43	29	75	2
44	30	31	1
45	30	35	2
46	31	32	2
47	31	90	1
48	32	33	1
49	32	91	1
50	33	34	2
51	33	92	1
52	34	35	1
53	34	93	1
54	35	94	1
55	36	37	1
56	36	53	1
57	36	95	1
58	37	38	1
59	37	39	1
60	37	49	1
61	38	96	1
62	38	97	1
63	38	98	1
64	39	40	1
65	39	76	2
66	40	43	1
67	40	77	1
68	40	99	1
69	41	42	1
70	41	78	2
71	42	100	1
72	42	101	1
73	42	102	1
74	43	44	2
75	43	46	1
76	44	45	1
77	45	103	1
78	45	104	1
79	45	105	1
80	46	47	1
81	46	48	1
82	47	106	1
83	47	107	1
84	47	108	1
85	48	109	1
86	48	110	1
87	48	111	1
88	49	50	1
89	49	79	1
90	49	112	1
91	50	51	1
92	50	114	1
93	50	115	1
94	51	53	1
95	51	80	1
96	51	116	1
97	52	53	1
98	52	117	1
99	52	118	1
100	53	81	1
101	54	55	1
102	54	82	2
103	55	119	1
104	55	120	1
105	55	121	1
106	22	56	1
107	56	64	1
108	56	122	1
109	57	58	1
110	57	83	2
111	58	59	1
112	58	63	2
113	59	60	2
114	59	124	1
115	60	61	1
116	60	125	1
117	61	62	2
118	61	126	1
119	62	63	1
120	62	127	1
121	63	128	1
122	64	65	1
123	64	69	2
124	65	66	2
125	65	129	1
126	66	67	1
127	66	130	1
128	67	68	2
129	67	131	1
130	68	69	1
131	68	132	1
132	69	133	1
133	23	70	1
134	25	72	1
135	73	88	1
136	29	74	1
137	41	77	1
138	79	113	1
139	52	80	1
140	54	81	1
