@<TRIPOS>MOLECULE
DOX
132 136 1 0 0
SMALL
USER_CHARGES


@<TRIPOS>ATOM
      1 C           2.3959   15.1837   13.3280 C.3       1     DOL    0.0000
      2 C           3.0988   14.2095   12.3733 C.3       1     DOL    0.0000
      3 C           2.1336   13.6461   11.3182 C.3       1     DOL    0.0000
      4 C           2.8357   12.6714   10.3588 C.3       1     DOL    0.0000
      5 C           1.8715   12.1070    9.3025 C.3       1     DOL    0.0000
      6 C           2.5779   11.1362    8.3422 C.3       1     DOL    0.0000
      7 C           1.6176   10.5687    7.2841 C.3       1     DOL    0.0000
      8 C           2.3312    9.6034    6.3238 C.3       1     DOL    0.0000
      9 C           1.3772    9.0299    5.2631 C.3       1     DOL    0.0000
     10 C           2.1012    8.0698    4.3053 C.3       1     DOL    0.0000
     11 C           1.1556    7.4857    3.2429 C.3       1     DOL    0.0000
     12 C           1.8920    6.5284    2.2917 C.3       1     DOL    0.0000
     13 C           0.9565    5.9270    1.2302 C.3       1     DOL    0.0000
     14 C           1.7069    4.9685    0.2913 C.3       1     DOL    0.0000
     15 C           0.7823    4.3432   -0.7660 C.3       1     DOL    0.0000
     16 C           1.5471    3.3775   -1.6857 C.3       1     DOL    0.0000
     17 C           0.6340    2.7215   -2.7343 C.3       1     DOL    0.0000
     18 C           1.4105    1.7456   -3.6204 C.3       1     DOL    0.0000
     19 O           0.5214    1.1602   -4.5412 O.3       1     DOL    0.0000
     20 C           1.0419    0.0760   -5.2880 C.3       1     DOL    0.0000
     21 C          -0.0492   -0.2889   -6.2929 C.3       1     DOL    0.0000
     22 C           2.3316    0.4490   -6.0118 C.3       1     DOL    0.0000
     23 O           1.2473   -0.9447   -4.3370 O.3       1     DOX    0.0000
     24 C           1.4327   -2.2503   -4.8480 C.3       1     DOX    0.0000
     25 C           1.8962   -3.2088   -3.7491 C.2       1     DOX    0.0000
     26 O           1.5888   -3.0271   -2.5923 O.2       1     DOX    0.0000
     27 C           2.7643   -4.4024   -4.1699 C.3       1     DOX    0.0000
     28 O           3.9908   -3.9104   -4.6671 O.3       1     DOX    0.0000
     29 C           2.0899   -5.2300   -5.2597 C.3       1     DOX    0.0000
     30 C           0.7888   -5.8463   -4.7745 C.ar      1     DOX    0.0000
     31 C          -0.2243   -6.0086   -5.6494 C.ar      1     DOX    0.0000
     32 O           0.0534   -5.6417   -6.9382 O.3       1     DOX    0.0000
     33 C          -1.4024   -6.5366   -5.2268 C.ar      1     DOX    0.0000
     34 C          -2.4416   -6.6922   -6.1021 C.2       1     DOX    0.0000
     35 O          -2.3487   -6.3627   -7.2681 O.2       1     DOX    0.0000
     36 C          -3.6172   -7.2241   -5.6589 C.ar      1     DOX    0.0000
     37 C          -4.6231   -7.3748   -6.5449 C.ar      1     DOX    0.0000
     38 C          -5.7979   -7.8896   -6.1761 C.ar      1     DOX    0.0000
     39 C          -5.9622   -8.2562   -4.9036 C.ar      1     DOX    0.0000
     40 C          -4.9915   -8.1264   -3.9763 C.ar      1     DOX    0.0000
     41 O          -5.2237   -8.5253   -2.6766 O.3       1     DOX    0.0000
     42 C          -6.4632   -9.0785   -2.2973 C.3       1     DOX    0.0000
     43 C          -3.7937   -7.5963   -4.3735 C.ar      1     DOX    0.0000
     44 C          -2.7526   -7.4268   -3.4950 C.2       1     DOX    0.0000
     45 O          -2.8942   -7.7513   -2.3309 O.2       1     DOX    0.0000
     46 C          -1.5611   -6.8958   -3.9326 C.ar      1     DOX    0.0000
     47 C          -0.5237   -6.7254   -3.0683 C.ar      1     DOX    0.0000
     48 O          -0.6038   -7.0509   -1.7432 O.3       1     DOX    0.0000
     49 C           0.6527   -6.2118   -3.4897 C.ar      1     DOX    0.0000
     50 C           1.8058   -6.0505   -2.4900 C.3       1     DOX    0.0000
     51 O           2.1323   -7.3208   -1.9593 O.3       1     DOX    0.0000
     52 C           2.9077   -7.3061   -0.7781 C.3       1     DOX    0.0000
     53 C           2.5079   -8.4536    0.1370 C.3       1     DOX    0.0000
     54 C           2.8937   -9.8014   -0.4771 C.3       1     DOX    0.0000
     55 N           2.6222  -10.9062    0.4573 N.3       1     DOX    0.0000
     56 C           4.3798   -9.7590   -0.8086 C.3       1     DOX    0.0000
     57 O           4.7436  -10.9708   -1.4255 O.3       1     DOX    0.0000
     58 C           4.6675   -8.5831   -1.7291 C.3       1     DOX    0.0000
     59 C           6.1570   -8.4702   -2.0602 C.3       1     DOX    0.0000
     60 O           4.2723   -7.3768   -1.1319 O.3       1     DOX    0.0000
     61 C           3.0661   -5.3735   -3.0360 C.3       1     DOX    0.0000
     62 H           3.1077   15.5833   14.0867 H         1     DOL    0.0000
     63 H           1.9690   16.0510   12.7744 H         1     DOL    0.0000
     64 H           1.5650   14.6817   13.8744 H         1     DOL    0.0000
     65 H           3.5388   13.3703   12.9636 H         1     DOL    0.0000
     66 H           3.9414   14.7371   11.8656 H         1     DOL    0.0000
     67 H           1.6937   14.4886   10.7334 H         1     DOL    0.0000
     68 H           1.2929   13.1203   11.8303 H         1     DOL    0.0000
     69 H           3.2762   11.8297   10.9443 H         1     DOL    0.0000
     70 H           3.6763   13.1982    9.8476 H         1     DOL    0.0000
     71 H           1.4293   12.9485    8.7181 H         1     DOL    0.0000
     72 H           1.0323   11.5773    9.8130 H         1     DOL    0.0000
     73 H           3.0213   10.2956    8.9272 H         1     DOL    0.0000
     74 H           3.4169   11.6670    7.8325 H         1     DOL    0.0000
     75 H           1.1717   11.4088    6.7002 H         1     DOL    0.0000
     76 H           0.7806   10.0338    7.7927 H         1     DOL    0.0000
     77 H           2.7791    8.7652    6.9089 H         1     DOL    0.0000
     78 H           3.1677   10.1399    5.8160 H         1     DOL    0.0000
     79 H           0.9270    9.8667    4.6780 H         1     DOL    0.0000
     80 H           0.5427    8.4889    5.7694 H         1     DOL    0.0000
     81 H           2.5551    7.2365    4.8927 H         1     DOL    0.0000
     82 H           2.9342    8.6130    3.7989 H         1     DOL    0.0000
     83 H           0.7007    8.3167    2.6533 H         1     DOL    0.0000
     84 H           0.3239    6.9393    3.7479 H         1     DOL    0.0000
     85 H           2.3534    5.7035    2.8853 H         1     DOL    0.0000
     86 H           2.7206    7.0777    1.7845 H         1     DOL    0.0000
     87 H           0.4961    6.7485    0.6315 H         1     DOL    0.0000
     88 H           0.1280    5.3768    1.7364 H         1     DOL    0.0000
     89 H           2.1762    4.1559    0.8955 H         1     DOL    0.0000
     90 H           2.5305    5.5217   -0.2196 H         1     DOL    0.0000
     91 H           0.3172    5.1510   -1.3793 H         1     DOL    0.0000
     92 H          -0.0433    3.7925   -0.2557 H         1     DOL    0.0000
     93 H           2.0238    2.5815   -1.0654 H         1     DOL    0.0000
     94 H           2.3662    3.9309   -2.2038 H         1     DOL    0.0000
     95 H           0.1645    3.5105   -3.3690 H         1     DOL    0.0000
     96 H          -0.1901    2.1745   -2.2166 H         1     DOL    0.0000
     97 H           1.8768    0.9632   -2.9807 H         1     DOL    0.0000
     98 H           2.2031    2.3042   -4.1676 H         1     DOL    0.0000
     99 H           0.2656   -1.0898   -6.9984 H         1     DOL    0.0000
    100 H          -0.3140    0.5925   -6.9209 H         1     DOL    0.0000
    101 H          -0.9809   -0.6215   -5.7805 H         1     DOL    0.0000
    102 H           2.2203    1.4174   -6.5507 H         1     DOL    0.0000
    103 H           3.2000    0.5295   -5.3202 H         1     DOL    0.0000
    104 H           2.6096   -0.3063   -6.7799 H         1     DOL    0.0000
    105 H           0.4689   -2.6444   -5.2411 H         1     DOX    0.0000
    106 H           2.2011   -2.2247   -5.6498 H         1     DOX    0.0000
    107 H           4.6354   -4.6145   -4.7528 H         1     DOX    0.0000
    108 H           1.9558   -4.5661   -6.1423 H         1     DOX    0.0000
    109 H           2.7553   -6.0588   -5.5986 H         1     DOX    0.0000
    110 H          -0.4704   -6.0678   -7.6260 H         1     DOX    0.0000
    111 H          -4.5579   -7.0961   -7.6095 H         1     DOX    0.0000
    112 H          -6.6155   -8.0108   -6.9071 H         1     DOX    0.0000
    113 H          -6.9515   -8.6741   -4.6618 H         1     DOX    0.0000
    114 H          -6.4033   -9.3211   -1.2124 H         1     DOX    0.0000
    115 H          -7.2819   -8.3370   -2.4329 H         1     DOX    0.0000
    116 H          -6.6534  -10.0278   -2.8461 H         1     DOX    0.0000
    117 H           0.2166   -6.8520   -1.2713 H         1     DOX    0.0000
    118 H           1.3867   -5.4155   -1.6730 H         1     DOX    0.0000
    119 H           2.7516   -6.3502   -0.2270 H         1     DOX    0.0000
    120 H           1.4106   -8.4217    0.3370 H         1     DOX    0.0000
    121 H           3.0221   -8.3364    1.1209 H         1     DOX    0.0000
    122 H           2.3006   -9.9821   -1.4059 H         1     DOX    0.0000
    123 H           2.9582  -11.7960    0.0486 H         1     DOX    0.0000
    124 H           3.1643  -10.7889    1.3309 H         1     DOX    0.0000
    125 H           4.9836   -9.6777    0.1244 H         1     DOX    0.0000
    126 H           5.6998  -11.0533   -1.4358 H         1     DOX    0.0000
    127 H           4.1175   -8.7126   -2.6917 H         1     DOX    0.0000
    128 H           6.7664   -8.3423   -1.1367 H         1     DOX    0.0000
    129 H           6.3533   -7.5934   -2.7197 H         1     DOX    0.0000
    130 H           6.5284   -9.3746   -2.5932 H         1     DOX    0.0000
    131 H           3.7513   -6.1508   -3.4517 H         1     DOX    0.0000
    132 H           3.6324   -4.8621   -2.2229 H         1     DOX    0.0000
@<TRIPOS>BOND
     1     1     2     1
     2     1    62     1
     3     1    63     1
     4     1    64     1
     5     2     3     1
     6     2    65     1
     7     2    66     1
     8     3     4     1
     9     3    67     1
    10     3    68     1
    11     4     5     1
    12     4    69     1
    13     4    70     1
    14     5     6     1
    15     5    71     1
    16     5    72     1
    17     6     7     1
    18     6    73     1
    19     6    74     1
    20     7     8     1
    21     7    75     1
    22     7    76     1
    23     8     9     1
    24     8    77     1
    25     8    78     1
    26     9    10     1
    27     9    79     1
    28     9    80     1
    29    10    11     1
    30    10    81     1
    31    10    82     1
    32    11    12     1
    33    11    83     1
    34    11    84     1
    35    12    13     1
    36    12    85     1
    37    12    86     1
    38    13    14     1
    39    13    87     1
    40    13    88     1
    41    14    15     1
    42    14    89     1
    43    14    90     1
    44    15    16     1
    45    15    91     1
    46    15    92     1
    47    16    17     1
    48    16    93     1
    49    16    94     1
    50    17    18     1
    51    17    95     1
    52    17    96     1
    53    18    19     1
    54    18    97     1
    55    18    98     1
    56    19    20     1
    57    20    21     1
    58    20    22     1
    59    20    23     1
    60    21    99     1
    61    21   100     1
    62    21   101     1
    63    22   102     1
    64    22   103     1
    65    22   104     1
    66    23    24     1
    67    24    25     1
    68    24   105     1
    69    24   106     1
    70    25    26     2
    71    25    27     1
    72    27    28     1
    73    27    29     1
    74    27    61     1
    75    28   107     1
    76    29    30     1
    77    29   108     1
    78    29   109     1
    79    30    31     1
    80    30    49     2
    81    31    32     1
    82    31    33     2
    83    32   110     1
    84    33    34     1
    85    33    46     1
    86    34    35     2
    87    34    36     1
    88    36    37     1
    89    36    43     2
    90    37    38     2
    91    37   111     1
    92    38    39     1
    93    38   112     1
    94    39    40     2
    95    39   113     1
    96    40    41     1
    97    40    43     1
    98    41    42     1
    99    42   114     1
   100    42   115     1
   101    42   116     1
   102    43    44     1
   103    44    45     2
   104    44    46     1
   105    46    47     2
   106    47    48     1
   107    47    49     1
   108    48   117     1
   109    49    50     1
   110    50    51     1
   111    50    61     1
   112    50   118     1
   113    51    52     1
   114    52    53     1
   115    52    60     1
   116    52   119     1
   117    53    54     1
   118    53   120     1
   119    53   121     1
   120    54    55     1
   121    54    56     1
   122    54   122     1
   123    55   123     1
   124    55   124     1
   125    56    57     1
   126    56    58     1
   127    56   125     1
   128    57   126     1
   129    58    59     1
   130    58    60     1
   131    58   127     1
   132    59   128     1
   133    59   129     1
   134    59   130     1
   135    61   131     1
   136    61   132     1
