@<TRIPOS>MOLECULE
DOX 
132 136 0 0 0
SMALL
USER_CHARGES
#CGenFF output mol2 file
@<TRIPOS>ATOM
1	C1     2.3960    15.1840    13.3280	C.3	1	DOX1    -0.2730
2	C2     3.0990    14.2100    12.3730	C.3	1	DOX1    -0.1770
3	C3     2.1340    13.6460    11.3180	C.3	1	DOX1    -0.1810
4	C4     2.8360    12.6710    10.3590	C.3	1	DOX1    -0.1790
5	C5     1.8720    12.1070     9.3020	C.3	1	DOX1    -0.1800
6	C6     2.5780    11.1360     8.3420	C.3	1	DOX1    -0.1800
7	C7     1.6180    10.5690     7.2840	C.3	1	DOX1    -0.1800
8	C8     2.3310     9.6030     6.3240	C.3	1	DOX1    -0.1800
9	C9     1.3770     9.0300     5.2630	C.3	1	DOX1    -0.1800
10	C10     2.1010     8.0700     4.3050	C.3	1	DOX1    -0.1800
11	C11     1.1560     7.4860     3.2430	C.3	1	DOX1    -0.1800
12	C12     1.8920     6.5280     2.2920	C.3	1	DOX1    -0.1800
13	C13     0.9560     5.9270     1.2300	C.3	1	DOX1    -0.1800
14	C14     1.7070     4.9690     0.2910	C.3	1	DOX1    -0.1800
15	C15     0.7820     4.3430    -0.7660	C.3	1	DOX1    -0.1800
16	C16     1.5470     3.3780    -1.6860	C.3	1	DOX1    -0.1800
17	C17     0.6340     2.7210    -2.7340	C.3	1	DOX1    -0.1800
18	C18     1.4110     1.7460    -3.6200	C.3	1	DOX1     0.0360
19	C19     1.0420     0.0760    -5.2880	C.3	1	DOX1     0.3810
20	C20    -0.0490    -0.2890    -6.2930	C.3	1	DOX1    -0.2690
21	C21     2.3320     0.4490    -6.0120	C.3	1	DOX1    -0.2690
22	O1     0.5210     1.1600    -4.5410	O.3	1	DOX1    -0.4020
23	H1     3.1080    15.5830    14.0870	H	1	DOX1     0.0900
24	H2     1.9690    16.0510    12.7740	H	1	DOX1     0.0900
25	H3     1.5650    14.6820    13.8740	H	1	DOX1     0.0900
26	H4     3.5390    13.3700    12.9640	H	1	DOX1     0.0900
27	H5     3.9410    14.7370    11.8660	H	1	DOX1     0.0900
28	H6     1.6940    14.4890    10.7330	H	1	DOX1     0.0900
29	H7     1.2930    13.1200    11.8300	H	1	DOX1     0.0900
30	H8     3.2760    11.8300    10.9440	H	1	DOX1     0.0900
31	H9     3.6760    13.1980     9.8480	H	1	DOX1     0.0900
32	H10     1.4290    12.9480     8.7180	H	1	DOX1     0.0900
33	H11     1.0320    11.5770     9.8130	H	1	DOX1     0.0900
34	H12     3.0210    10.2960     8.9270	H	1	DOX1     0.0900
35	H13     3.4170    11.6670     7.8320	H	1	DOX1     0.0900
36	H14     1.1720    11.4090     6.7000	H	1	DOX1     0.0900
37	H15     0.7810    10.0340     7.7930	H	1	DOX1     0.0900
38	H16     2.7790     8.7650     6.9090	H	1	DOX1     0.0900
39	H17     3.1680    10.1400     5.8160	H	1	DOX1     0.0900
40	H18     0.9270     9.8670     4.6780	H	1	DOX1     0.0900
41	H19     0.5430     8.4890     5.7690	H	1	DOX1     0.0900
42	H20     2.5550     7.2360     4.8930	H	1	DOX1     0.0900
43	H21     2.9340     8.6130     3.7990	H	1	DOX1     0.0900
44	H22     0.7010     8.3170     2.6530	H	1	DOX1     0.0900
45	H23     0.3240     6.9390     3.7480	H	1	DOX1     0.0900
46	H24     2.3530     5.7030     2.8850	H	1	DOX1     0.0900
47	H25     2.7210     7.0780     1.7850	H	1	DOX1     0.0900
48	H26     0.4960     6.7480     0.6320	H	1	DOX1     0.0900
49	H27     0.1280     5.3770     1.7360	H	1	DOX1     0.0900
50	H28     2.1760     4.1560     0.8960	H	1	DOX1     0.0900
51	H29     2.5300     5.5220    -0.2200	H	1	DOX1     0.0900
52	H30     0.3170     5.1510    -1.3790	H	1	DOX1     0.0900
53	H31    -0.0430     3.7930    -0.2560	H	1	DOX1     0.0900
54	H32     2.0240     2.5820    -1.0650	H	1	DOX1     0.0900
55	H33     2.3660     3.9310    -2.2040	H	1	DOX1     0.0900
56	H34     0.1640     3.5100    -3.3690	H	1	DOX1     0.0900
57	H35    -0.1900     2.1740    -2.2170	H	1	DOX1     0.0900
58	H36     1.8770     0.9630    -2.9810	H	1	DOX1     0.0900
59	H37     2.2030     2.3040    -4.1680	H	1	DOX1     0.0900
60	H38     0.2660    -1.0900    -6.9980	H	1	DOX1     0.0900
61	H39    -0.3140     0.5920    -6.9210	H	1	DOX1     0.0900
62	H40    -0.9810    -0.6220    -5.7800	H	1	DOX1     0.0900
63	H41     2.2200     1.4170    -6.5510	H	1	DOX1     0.0900
64	H42     3.2000     0.5300    -5.3200	H	1	DOX1     0.0900
65	H43     2.6100    -0.3060    -6.7800	H	1	DOX1     0.0900
66	N     2.6220   -10.9060     0.4570	N.3	1	DOX1    -1.0000
67	C22     1.4330    -2.2500    -4.8480	C.3	1	DOX1     0.1790
68	C23     1.8960    -3.2090    -3.7490	C.2	1	DOX1     0.3050
69	C24     2.7640    -4.4020    -4.1700	C.3	1	DOX1     0.2750
70	C25     2.0900    -5.2300    -5.2600	C.3	1	DOX1    -0.2130
71	C26     0.7890    -5.8460    -4.7740	C.2	1	DOX1     0.0230
72	C27    -0.2240    -6.0090    -5.6490	C.2	1	DOX1    -0.0020
73	C28    -1.4020    -6.5370    -5.2270	C.2	1	DOX1     0.2630
74	C29    -2.4420    -6.6920    -6.1020	C.2	1	DOX1     0.1860
75	C30    -3.6170    -7.2240    -5.6590	C.2	1	DOX1     0.1310
76	C31    -4.6230    -7.3750    -6.5450	C.2	1	DOX1    -0.1090
77	C32    -5.7980    -7.8900    -6.1760	C.2	1	DOX1    -0.1150
78	C33    -5.9620    -8.2560    -4.9040	C.2	1	DOX1    -0.1180
79	C34    -4.9910    -8.1260    -3.9760	C.2	1	DOX1     0.1070
80	C35    -6.4630    -9.0780    -2.2970	C.3	1	DOX1    -0.1010
81	C36    -3.7940    -7.5960    -4.3730	C.2	1	DOX1     0.2490
82	C37    -2.7530    -7.4270    -3.4950	C.2	1	DOX1     0.1930
83	C38    -1.5610    -6.8960    -3.9330	C.2	1	DOX1     0.2550
84	C39    -0.5240    -6.7250    -3.0680	C.2	1	DOX1     0.0160
85	C40     0.6530    -6.2120    -3.4900	C.2	1	DOX1    -0.0150
86	C41     1.8060    -6.0500    -2.4900	C.3	1	DOX1     0.1330
87	C42     2.9080    -7.3060    -0.7780	C.3	1	DOX1     0.2770
88	C43     2.5080    -8.4540     0.1370	C.3	1	DOX1    -0.1690
89	C44     2.8940    -9.8010    -0.4770	C.3	1	DOX1     0.1690
90	C45     4.3800    -9.7590    -0.8090	C.3	1	DOX1     0.1610
91	C46     4.6680    -8.5830    -1.7290	C.3	1	DOX1     0.0130
92	C47     6.1570    -8.4700    -2.0600	C.3	1	DOX1    -0.2180
93	C48     3.0660    -5.3730    -3.0360	C.3	1	DOX1    -0.2150
94	O2     1.2470    -0.9450    -4.3370	O.3	1	DOX1    -0.4520
95	O3     1.5890    -3.0270    -2.5920	O.2	1	DOX1    -0.5060
96	O4     3.9910    -3.9100    -4.6670	O.3	1	DOX1    -0.5010
97	O5     0.0530    -5.6420    -6.9380	O.3	1	DOX1    -0.5430
98	O6    -2.3490    -6.3630    -7.2680	O.2	1	DOX1    -0.4490
99	O7    -5.2240    -8.5250    -2.6770	O.3	1	DOX1    -0.3960
100	O8    -2.8940    -7.7510    -2.3310	O.2	1	DOX1    -0.4490
101	O9    -0.6040    -7.0510    -1.7430	O.3	1	DOX1    -0.5430
102	O10     2.1320    -7.3210    -1.9590	O.3	1	DOX1    -0.4140
103	O11     4.7440   -10.9710    -1.4260	O.3	1	DOX1    -0.6500
104	O12     4.2720    -7.3770    -1.1320	O.3	1	DOX1    -0.3840
105	H44     0.4690    -2.6440    -5.2410	H	1	DOX1     0.0900
106	H45     2.2010    -2.2250    -5.6500	H	1	DOX1     0.0900
107	H46     4.6350    -4.6150    -4.7530	H	1	DOX1     0.3350
108	H47     1.9560    -4.5660    -6.1420	H	1	DOX1     0.0900
109	H48     2.7550    -6.0590    -5.5990	H	1	DOX1     0.0900
110	H49    -0.4700    -6.0680    -7.6260	H	1	DOX1     0.4200
111	H50    -4.5580    -7.0960    -7.6090	H	1	DOX1     0.1150
112	H51    -6.6150    -8.0110    -6.9070	H	1	DOX1     0.1150
113	H52    -6.9510    -8.6740    -4.6620	H	1	DOX1     0.1150
114	H53    -6.4030    -9.3210    -1.2120	H	1	DOX1     0.0900
115	H54    -7.2820    -8.3370    -2.4330	H	1	DOX1     0.0900
116	H55    -6.6530   -10.0280    -2.8460	H	1	DOX1     0.0900
117	H56     0.2170    -6.8520    -1.2710	H	1	DOX1     0.4200
118	H57     1.3870    -5.4160    -1.6730	H	1	DOX1     0.0900
119	H58     2.7520    -6.3500    -0.2270	H	1	DOX1     0.0900
120	H59     1.4110    -8.4220     0.3370	H	1	DOX1     0.0900
121	H60     3.0220    -8.3360     1.1210	H	1	DOX1     0.0900
122	H61     2.3010    -9.9820    -1.4060	H	1	DOX1     0.0900
123	H62     2.9580   -11.7960     0.0490	H	1	DOX1     0.3900
124	H63     3.1640   -10.7890     1.3310	H	1	DOX1     0.3900
125	H64     4.9840    -9.6780     0.1240	H	1	DOX1     0.0900
126	H65     5.7000   -11.0530    -1.4360	H	1	DOX1     0.4200
127	H66     4.1170    -8.7130    -2.6920	H	1	DOX1     0.0900
128	H67     6.7660    -8.3420    -1.1370	H	1	DOX1     0.0900
129	H68     6.3530    -7.5930    -2.7200	H	1	DOX1     0.0900
130	H69     6.5280    -9.3750    -2.5930	H	1	DOX1     0.0900
131	H70     3.7510    -6.1510    -3.4520	H	1	DOX1     0.0900
132	H71     3.6320    -4.8620    -2.2230	H	1	DOX1     0.0900
@<TRIPOS>BOND
1	1	2	1
2	1	23	1
3	1	24	1
4	1	25	1
5	2	3	1
6	2	26	1
7	2	27	1
8	3	4	1
9	3	28	1
10	3	29	1
11	4	5	1
12	4	30	1
13	4	31	1
14	5	6	1
15	5	32	1
16	5	33	1
17	6	7	1
18	6	34	1
19	6	35	1
20	7	8	1
21	7	36	1
22	7	37	1
23	8	9	1
24	8	38	1
25	8	39	1
26	9	10	1
27	9	40	1
28	9	41	1
29	10	11	1
30	10	42	1
31	10	43	1
32	11	12	1
33	11	44	1
34	11	45	1
35	12	13	1
36	12	46	1
37	12	47	1
38	13	14	1
39	13	48	1
40	13	49	1
41	14	15	1
42	14	50	1
43	14	51	1
44	15	16	1
45	15	52	1
46	15	53	1
47	16	17	1
48	16	54	1
49	16	55	1
50	17	18	1
51	17	56	1
52	17	57	1
53	18	22	1
54	18	58	1
55	18	59	1
56	19	20	1
57	19	21	1
58	19	94	1
59	20	60	1
60	20	61	1
61	20	62	1
62	21	63	1
63	21	64	1
64	21	65	1
65	19	22	1
66	66	123	1
67	66	124	1
68	67	68	1
69	67	105	1
70	67	106	1
71	68	69	1
72	68	95	2
73	69	70	1
74	69	93	1
75	69	96	1
76	70	71	1
77	70	108	1
78	70	109	1
79	71	72	1
80	71	85	2
81	72	73	2
82	72	97	1
83	73	74	1
84	73	83	1
85	74	75	1
86	74	98	2
87	75	76	1
88	75	81	2
89	76	77	2
90	76	111	1
91	77	78	1
92	77	112	1
93	78	79	2
94	78	113	1
95	79	81	1
96	79	99	1
97	80	114	1
98	80	115	1
99	80	116	1
100	81	82	1
101	82	83	1
102	82	100	2
103	83	84	2
104	84	85	1
105	84	101	1
106	85	86	1
107	86	93	1
108	86	102	1
109	86	118	1
110	87	88	1
111	87	104	1
112	87	119	1
113	88	89	1
114	88	120	1
115	88	121	1
116	66	89	1
117	89	90	1
118	89	122	1
119	90	91	1
120	90	103	1
121	90	125	1
122	91	92	1
123	91	104	1
124	91	127	1
125	92	128	1
126	92	129	1
127	92	130	1
128	93	131	1
129	93	132	1
130	67	94	1
131	96	107	1
132	97	110	1
133	80	99	1
134	101	117	1
135	87	102	1
136	103	126	1
