# created with PyMOL 2.5.4
@<TRIPOS>MOLECULE
DOX
132 136 2               
SMALL
USER_CHARGES
@<TRIPOS>ATOM
1	   C	2.396	15.184	13.328	C.3	1	DOL1	0.000	
2	   C	3.099	14.210	12.373	C.3	1	DOL1	0.000	
3	   C	2.134	13.646	11.318	C.3	1	DOL1	0.000	
4	   C	2.836	12.671	10.359	C.3	1	DOL1	0.000	
5	   C	1.872	12.107	9.302	C.3	1	DOL1	0.000	
6	   C	2.578	11.136	8.342	C.3	1	DOL1	0.000	
7	   C	1.618	10.569	7.284	C.3	1	DOL1	0.000	
8	   C	2.331	9.603	6.324	C.3	1	DOL1	0.000	
9	   C	1.377	9.030	5.263	C.3	1	DOL1	0.000	
10	   C	2.101	8.070	4.305	C.3	1	DOL1	0.000	
11	   C	1.156	7.486	3.243	C.3	1	DOL1	0.000	
12	   C	1.892	6.528	2.292	C.3	1	DOL1	0.000	
13	   C	0.956	5.927	1.230	C.3	1	DOL1	0.000	
14	   C	1.707	4.969	0.291	C.3	1	DOL1	0.000	
15	   C	0.782	4.343	-0.766	C.3	1	DOL1	0.000	
16	   C	1.547	3.378	-1.686	C.3	1	DOL1	0.000	
17	   C	0.634	2.721	-2.734	C.3	1	DOL1	0.000	
18	   C	1.411	1.746	-3.620	C.3	1	DOL1	0.000	
19	   C	1.042	0.076	-5.288	C.3	1	DOL1	0.000	
20	   C	-0.049	-0.289	-6.293	C.3	1	DOL1	0.000	
21	   C	2.332	0.449	-6.012	C.3	1	DOL1	0.000	
22	   O	0.521	1.160	-4.541	O.3	1	DOL1	0.000	
23	   H	3.108	15.583	14.087	 H	1	DOL1	0.000	
24	   H	1.969	16.051	12.774	 H	1	DOL1	0.000	
25	   H	1.565	14.682	13.874	 H	1	DOL1	0.000	
26	   H	3.539	13.370	12.964	 H	1	DOL1	0.000	
27	   H	3.941	14.737	11.866	 H	1	DOL1	0.000	
28	   H	1.694	14.489	10.733	 H	1	DOL1	0.000	
29	   H	1.293	13.120	11.830	 H	1	DOL1	0.000	
30	   H	3.276	11.830	10.944	 H	1	DOL1	0.000	
31	   H	3.676	13.198	9.848	 H	1	DOL1	0.000	
32	   H	1.429	12.948	8.718	 H	1	DOL1	0.000	
33	   H	1.032	11.577	9.813	 H	1	DOL1	0.000	
34	   H	3.021	10.296	8.927	 H	1	DOL1	0.000	
35	   H	3.417	11.667	7.832	 H	1	DOL1	0.000	
36	   H	1.172	11.409	6.700	 H	1	DOL1	0.000	
37	   H	0.781	10.034	7.793	 H	1	DOL1	0.000	
38	   H	2.779	8.765	6.909	 H	1	DOL1	0.000	
39	   H	3.168	10.140	5.816	 H	1	DOL1	0.000	
40	   H	0.927	9.867	4.678	 H	1	DOL1	0.000	
41	   H	0.543	8.489	5.769	 H	1	DOL1	0.000	
42	   H	2.555	7.236	4.893	 H	1	DOL1	0.000	
43	   H	2.934	8.613	3.799	 H	1	DOL1	0.000	
44	   H	0.701	8.317	2.653	 H	1	DOL1	0.000	
45	   H	0.324	6.939	3.748	 H	1	DOL1	0.000	
46	   H	2.353	5.703	2.885	 H	1	DOL1	0.000	
47	   H	2.721	7.078	1.785	 H	1	DOL1	0.000	
48	   H	0.496	6.748	0.632	 H	1	DOL1	0.000	
49	   H	0.128	5.377	1.736	 H	1	DOL1	0.000	
50	   H	2.176	4.156	0.896	 H	1	DOL1	0.000	
51	   H	2.530	5.522	-0.220	 H	1	DOL1	0.000	
52	   H	0.317	5.151	-1.379	 H	1	DOL1	0.000	
53	   H	-0.043	3.793	-0.256	 H	1	DOL1	0.000	
54	   H	2.024	2.582	-1.065	 H	1	DOL1	0.000	
55	   H	2.366	3.931	-2.204	 H	1	DOL1	0.000	
56	   H	0.164	3.510	-3.369	 H	1	DOL1	0.000	
57	   H	-0.190	2.174	-2.217	 H	1	DOL1	0.000	
58	   H	1.877	0.963	-2.981	 H	1	DOL1	0.000	
59	   H	2.203	2.304	-4.168	 H	1	DOL1	0.000	
60	   H	0.266	-1.090	-6.998	 H	1	DOL1	0.000	
61	   H	-0.314	0.592	-6.921	 H	1	DOL1	0.000	
62	   H	-0.981	-0.622	-5.780	 H	1	DOL1	0.000	
63	   H	2.220	1.417	-6.551	 H	1	DOL1	0.000	
64	   H	3.200	0.530	-5.320	 H	1	DOL1	0.000	
65	   H	2.610	-0.306	-6.780	 H	1	DOL1	0.000	
66	   N	2.622	-10.906	0.457	N.3	2	DOX1	0.000	
67	   C	1.433	-2.250	-4.848	C.3	2	DOX1	0.000	
68	   C	1.896	-3.209	-3.749	C.2	2	DOX1	0.000	
69	   C	2.764	-4.402	-4.170	C.3	2	DOX1	0.000	
70	   C	2.090	-5.230	-5.260	C.3	2	DOX1	0.000	
71	   C	0.789	-5.846	-4.774	C.2	2	DOX1	0.000	
72	   C	-0.224	-6.009	-5.649	C.2	2	DOX1	0.000	
73	   C	-1.402	-6.537	-5.227	C.2	2	DOX1	0.000	
74	   C	-2.442	-6.692	-6.102	C.2	2	DOX1	0.000	
75	   C	-3.617	-7.224	-5.659	C.2	2	DOX1	0.000	
76	   C	-4.623	-7.375	-6.545	C.2	2	DOX1	0.000	
77	   C	-5.798	-7.890	-6.176	C.2	2	DOX1	0.000	
78	   C	-5.962	-8.256	-4.904	C.2	2	DOX1	0.000	
79	   C	-4.991	-8.126	-3.976	C.2	2	DOX1	0.000	
80	   C	-6.463	-9.078	-2.297	C.3	2	DOX1	0.000	
81	   C	-3.794	-7.596	-4.373	C.2	2	DOX1	0.000	
82	   C	-2.753	-7.427	-3.495	C.2	2	DOX1	0.000	
83	   C	-1.561	-6.896	-3.933	C.2	2	DOX1	0.000	
84	   C	-0.524	-6.725	-3.068	C.2	2	DOX1	0.000	
85	   C	0.653	-6.212	-3.490	C.2	2	DOX1	0.000	
86	   C	1.806	-6.050	-2.490	C.3	2	DOX1	0.000	
87	   C	2.908	-7.306	-0.778	C.3	2	DOX1	0.000	
88	   C	2.508	-8.454	0.137	C.3	2	DOX1	0.000	
89	   C	2.894	-9.801	-0.477	C.3	2	DOX1	0.000	
90	   C	4.380	-9.759	-0.809	C.3	2	DOX1	0.000	
91	   C	4.668	-8.583	-1.729	C.3	2	DOX1	0.000	
92	   C	6.157	-8.470	-2.060	C.3	2	DOX1	0.000	
93	   C	3.066	-5.373	-3.036	C.3	2	DOX1	0.000	
94	   O	1.247	-0.945	-4.337	O.3	2	DOX1	0.000	
95	   O	1.589	-3.027	-2.592	O.2	2	DOX1	0.000	
96	   O	3.991	-3.910	-4.667	O.3	2	DOX1	0.000	
97	   O	0.053	-5.642	-6.938	O.3	2	DOX1	0.000	
98	   O	-2.349	-6.363	-7.268	O.2	2	DOX1	0.000	
99	   O	-5.224	-8.525	-2.677	O.3	2	DOX1	0.000	
100	   O	-2.894	-7.751	-2.331	O.2	2	DOX1	0.000	
101	   O	-0.604	-7.051	-1.743	O.3	2	DOX1	0.000	
102	   O	2.132	-7.321	-1.959	O.3	2	DOX1	0.000	
103	   O	4.744	-10.971	-1.426	O.3	2	DOX1	0.000	
104	   O	4.272	-7.377	-1.132	O.3	2	DOX1	0.000	
105	   H	0.469	-2.644	-5.241	 H	2	DOX1	0.000	
106	   H	2.201	-2.225	-5.650	 H	2	DOX1	0.000	
107	   H	4.635	-4.615	-4.753	 H	2	DOX1	0.000	
108	   H	1.956	-4.566	-6.142	 H	2	DOX1	0.000	
109	   H	2.755	-6.059	-5.599	 H	2	DOX1	0.000	
110	   H	-0.470	-6.068	-7.626	 H	2	DOX1	0.000	
111	   H	-4.558	-7.096	-7.609	 H	2	DOX1	0.000	
112	   H	-6.615	-8.011	-6.907	 H	2	DOX1	0.000	
113	   H	-6.951	-8.674	-4.662	 H	2	DOX1	0.000	
114	   H	-6.403	-9.321	-1.212	 H	2	DOX1	0.000	
115	   H	-7.282	-8.337	-2.433	 H	2	DOX1	0.000	
116	   H	-6.653	-10.028	-2.846	 H	2	DOX1	0.000	
117	   H	0.217	-6.852	-1.271	 H	2	DOX1	0.000	
118	   H	1.387	-5.416	-1.673	 H	2	DOX1	0.000	
119	   H	2.752	-6.350	-0.227	 H	2	DOX1	0.000	
120	   H	1.411	-8.422	0.337	 H	2	DOX1	0.000	
121	   H	3.022	-8.336	1.121	 H	2	DOX1	0.000	
122	   H	2.301	-9.982	-1.406	 H	2	DOX1	0.000	
123	   H	2.958	-11.796	0.049	 H	2	DOX1	0.000	
124	   H	3.164	-10.789	1.331	 H	2	DOX1	0.000	
125	   H	4.984	-9.678	0.124	 H	2	DOX1	0.000	
126	   H	5.700	-11.053	-1.436	 H	2	DOX1	0.000	
127	   H	4.117	-8.713	-2.692	 H	2	DOX1	0.000	
128	   H	6.766	-8.342	-1.137	 H	2	DOX1	0.000	
129	   H	6.353	-7.593	-2.720	 H	2	DOX1	0.000	
130	   H	6.528	-9.375	-2.593	 H	2	DOX1	0.000	
131	   H	3.751	-6.151	-3.452	 H	2	DOX1	0.000	
132	   H	3.632	-4.862	-2.223	 H	2	DOX1	0.000	
@<TRIPOS>BOND
1 1 2 1
2 1 23 1
3 1 24 1
4 1 25 1
5 2 3 1
6 2 26 1
7 2 27 1
8 3 4 1
9 3 28 1
10 3 29 1
11 4 5 1
12 4 30 1
13 4 31 1
14 5 6 1
15 5 32 1
16 5 33 1
17 6 7 1
18 6 34 1
19 6 35 1
20 7 8 1
21 7 36 1
22 7 37 1
23 8 9 1
24 8 38 1
25 8 39 1
26 9 10 1
27 9 40 1
28 9 41 1
29 10 11 1
30 10 42 1
31 10 43 1
32 11 12 1
33 11 44 1
34 11 45 1
35 12 13 1
36 12 46 1
37 12 47 1
38 13 14 1
39 13 48 1
40 13 49 1
41 14 15 1
42 14 50 1
43 14 51 1
44 15 16 1
45 15 52 1
46 15 53 1
47 16 17 1
48 16 54 1
49 16 55 1
50 17 18 1
51 17 56 1
52 17 57 1
53 18 22 1
54 18 58 1
55 18 59 1
56 19 20 1
57 19 21 1
58 19 94 1
59 20 60 1
60 20 61 1
61 20 62 1
62 21 63 1
63 21 64 1
64 21 65 1
65 19 22 1
66 66 123 1
67 66 124 1
68 67 68 1
69 67 105 1
70 67 106 1
71 68 69 1
72 68 95 2
73 69 70 1
74 69 93 1
75 69 96 1
76 70 71 1
77 70 108 1
78 70 109 1
79 71 72 1
80 71 85 2
81 72 73 2
82 72 97 1
83 73 74 1
84 73 83 1
85 74 75 1
86 74 98 2
87 75 76 1
88 75 81 2
89 76 77 2
90 76 111 1
91 77 78 1
92 77 112 1
93 78 79 2
94 78 113 1
95 79 81 1
96 79 99 1
97 80 114 1
98 80 115 1
99 80 116 1
100 81 82 1
101 82 83 1
102 82 100 2
103 83 84 2
104 84 85 1
105 84 101 1
106 85 86 1
107 86 93 1
108 86 102 1
109 86 118 1
110 87 88 1
111 87 104 1
112 87 119 1
113 88 89 1
114 88 120 1
115 88 121 1
116 66 89 1
117 89 90 1
118 89 122 1
119 90 91 1
120 90 103 1
121 90 125 1
122 91 92 1
123 91 104 1
124 91 127 1
125 92 128 1
126 92 129 1
127 92 130 1
128 93 131 1
129 93 132 1
130 67 94 1
131 96 107 1
132 97 110 1
133 80 99 1
134 101 117 1
135 87 102 1
136 103 126 1
@<TRIPOS>SUBSTRUCTURE
1	DOL1	1	GROUP	1 ****	DOL
2	DOX1	66	GROUP	1 ****	DOX
