@<TRIPOS>MOLECULE
ABI 
145 150 0 0 0
SMALL
USER_CHARGES
#CGenFF output mol2 file
@<TRIPOS>ATOM
1	N    18.3470    14.9330     4.4080	N.2	1	ABL1    -0.5990
2	C1    16.3230    11.0040     5.7970	C.3	1	ABL1    -0.2710
3	C2    16.2140    11.1910     4.2690	C.3	1	ABL1    -0.1710
4	C3    17.6300    11.5010     3.7560	C.2	1	ABL1    -0.0070
5	C4    18.2820    12.6860     3.7700	C.2	1	ABL1     0.1060
6	C5    17.7900    13.7970     4.3560	C.2	1	ABL1     0.1680
7	C6    19.4790    15.0630     3.8640	C.2	1	ABL1     0.1820
8	C7    20.1060    14.0520     3.2470	C.2	1	ABL1    -0.1230
9	C8    19.4980    12.8570     3.2080	C.2	1	ABL1    -0.1130
10	C9    18.1840    10.3380     3.3570	C.2	1	ABL1    -0.0660
11	C10    17.2830     9.1370     3.4740	C.3	1	ABL1    -0.1570
12	C11    15.9430     9.8770     3.4920	C.3	1	ABL1    -0.1360
13	C12    14.6850     9.1210     3.9320	C.3	1	ABL1    -0.0780
14	C13    14.5580     7.7920     3.1750	C.3	1	ABL1    -0.1780
15	C14    13.1700     7.2240     3.2070	C.2	1	ABL1    -0.1530
16	C15    12.0870     7.8950     3.6280	C.2	1	ABL1     0.0030
17	C16    10.7050     7.3040     3.4830	C.3	1	ABL1    -0.1670
18	C17     9.9750     8.0570     2.3640	C.3	1	ABL1     0.1880
19	C18    10.4020     9.5330     2.3060	C.3	1	ABL1    -0.1780
20	C19    10.8610    10.0390     3.6820	C.3	1	ABL1    -0.1740
21	C20    12.1400     9.3130     4.1830	C.3	1	ABL1    -0.0010
22	C21    12.0750     9.2230     5.7260	C.3	1	ABL1    -0.2720
23	C22    13.4440    10.0130     3.6930	C.3	1	ABL1    -0.0980
24	C23    13.6680    11.4420     4.2400	C.3	1	ABL1    -0.1770
25	C24    15.0230    12.0890     3.8760	C.3	1	ABL1    -0.1860
26	O1     8.6000     7.9360     2.5890	O.3	1	ABL1    -0.1540
27	H1    13.3540    10.1250     2.5820	H	1	ABL1     0.0900
28	H2    14.7790     8.8850     5.0160	H	1	ABL1     0.0900
29	H3    15.7680    10.1510     2.4170	H	1	ABL1     0.0900
30	H4    17.1200    10.2790     6.0750	H	1	ABL1     0.0900
31	H5    16.5690    11.9630     6.3030	H	1	ABL1     0.0900
32	H6    15.3890    10.6350     6.2700	H	1	ABL1     0.0900
33	H7    16.8310    13.7920     4.8880	H	1	ABL1     0.1220
34	H8    19.9460    16.0610     3.9190	H	1	ABL1     0.1220
35	H9    21.0950    14.2040     2.7830	H	1	ABL1     0.1150
36	H10    20.0400    12.0560     2.6840	H	1	ABL1     0.1150
37	H11    19.2100    10.1810     3.0000	H	1	ABL1     0.1750
38	H12    17.3800     8.4570     2.5980	H	1	ABL1     0.0900
39	H13    17.4870     8.5780     4.4140	H	1	ABL1     0.0900
40	H14    14.8140     7.9360     2.0990	H	1	ABL1     0.0900
41	H15    15.2720     7.0450     3.5950	H	1	ABL1     0.0900
42	H16    13.0450     6.2160     2.7780	H	1	ABL1     0.1500
43	H17    10.7330     6.2140     3.2530	H	1	ABL1     0.0900
44	H18    10.1650     7.3960     4.4520	H	1	ABL1     0.0900
45	H19    10.2330     7.5640     1.3950	H	1	ABL1     0.0900
46	H20     9.5760    10.1760     1.9230	H	1	ABL1     0.0900
47	H21    11.2430     9.6550     1.5830	H	1	ABL1     0.0900
48	H22    10.0110     9.8670     4.3840	H	1	ABL1     0.0900
49	H23    10.9960    11.1420     3.6670	H	1	ABL1     0.0900
50	H24    11.9950    10.2250     6.1990	H	1	ABL1     0.0900
51	H25    11.1860     8.6530     6.0760	H	1	ABL1     0.0900
52	H26    12.9560     8.7060     6.1620	H	1	ABL1     0.0900
53	H27    12.8660    12.1250     3.8740	H	1	ABL1     0.0900
54	H28    13.5760    11.4390     5.3470	H	1	ABL1     0.0900
55	H29    15.0510    12.3010     2.7820	H	1	ABL1     0.0900
56	H30    15.0540    13.0770     4.3830	H	1	ABL1     0.0900
57	C25     7.7330     8.1420     1.5490	C.2	1	ABL1     0.0410
58	C26     7.2900     8.6430    -0.7510	C.3	1	ABL1     0.1400
59	C27     6.6210     7.3460    -1.1520	C.2	1	ABL1     0.0130
60	C28     7.3520     6.2950    -1.5570	C.2	1	ABL1    -0.1180
61	C29     6.7640     5.1430    -1.9120	C.2	1	ABL1    -0.1080
62	C30     5.4310     4.9640    -1.8260	C.2	1	ABL1     0.2380
63	C31     4.5740     2.8200    -1.2620	C.3	1	ABL1     0.3830
64	C32     3.8950     0.5380    -1.5470	C.3	1	ABL1     0.0360
65	C33     2.9520    -0.2980    -2.4010	C.3	1	ABL1    -0.0090
66	C34     2.1260    -2.4720    -2.6670	C.3	1	ABL1    -0.0090
67	C35     2.2510    -3.8920    -2.1140	C.3	1	ABL1    -0.1800
68	C36     1.3510    -4.8840    -2.8680	C.3	1	ABL1    -0.1800
69	C37     1.5000    -6.3160    -2.3300	C.3	1	ABL1    -0.1800
70	C38     0.5990    -7.3120    -3.0790	C.3	1	ABL1    -0.1800
71	C39     0.7690    -8.7460    -2.5530	C.3	1	ABL1    -0.1800
72	C40    -0.1350    -9.7440    -3.2950	C.3	1	ABL1    -0.1800
73	C41     0.0490   -11.1790    -2.7740	C.3	1	ABL1    -0.1800
74	C42    -0.8590   -12.1800    -3.5070	C.3	1	ABL1    -0.1800
75	C43    -0.6660   -13.6150    -2.9900	C.3	1	ABL1    -0.1800
76	C44    -1.5810   -14.6170    -3.7130	C.3	1	ABL1    -0.1800
77	C45    -1.3820   -16.0520    -3.1960	C.3	1	ABL1    -0.1800
78	C46    -2.3030   -17.0550    -3.9100	C.3	1	ABL1    -0.1800
79	C47    -2.1010   -18.4880    -3.3920	C.3	1	ABL1    -0.1800
80	C48    -3.0270   -19.4910    -4.0990	C.3	1	ABL1    -0.1790
81	C49    -2.8240   -20.9250    -3.5820	C.3	1	ABL1    -0.1810
82	C50    -3.7530   -21.9280    -4.2850	C.3	1	ABL1    -0.1770
83	C51    -3.5460   -23.3570    -3.7660	C.3	1	ABL1    -0.2730
84	C52     5.8830     2.3150    -0.6620	C.3	1	ABL1    -0.2740
85	C53     3.6270     3.3510    -0.1910	C.3	1	ABL1    -0.2740
86	C54     4.7090     6.0550    -1.5100	C.2	1	ABL1    -0.1080
87	C55     5.2840     7.2140    -1.1530	C.2	1	ABL1    -0.1180
88	O2     6.5380     8.0350     1.7500	O.2	1	ABL1    -0.3950
89	O3     8.2100     8.4620     0.3060	O.3	1	ABL1    -0.1340
90	O4     4.8350     3.8020    -2.2470	O.3	1	ABL1    -0.4260
91	O5     3.9050     1.8510    -2.0490	O.3	1	ABL1    -0.4030
92	O6     2.9770    -1.6240    -1.9340	O.3	1	ABL1    -0.3420
93	H31     6.5680     9.4430    -0.4760	H	1	ABL1     0.0900
94	H32     7.8690     9.0260    -1.6240	H	1	ABL1     0.0900
95	H33     8.4500     6.3830    -1.6140	H	1	ABL1     0.1150
96	H34     7.3960     4.3140    -2.2730	H	1	ABL1     0.1150
97	H35     4.9190     0.1040    -1.6150	H	1	ABL1     0.0900
98	H36     3.5440     0.5310    -0.4910	H	1	ABL1     0.0900
99	H37     1.9140     0.1040    -2.3270	H	1	ABL1     0.0900
100	H38     3.2830    -0.2740    -3.4660	H	1	ABL1     0.0900
101	H39     1.0750    -2.1150    -2.5680	H	1	ABL1     0.0900
102	H40     2.4240    -2.4570    -3.7410	H	1	ABL1     0.0900
103	H41     3.3140    -4.2240    -2.1920	H	1	ABL1     0.0900
104	H42     1.9810    -3.8930    -1.0310	H	1	ABL1     0.0900
105	H43     0.2860    -4.5610    -2.7750	H	1	ABL1     0.0900
106	H44     1.6110    -4.8680    -3.9530	H	1	ABL1     0.0900
107	H45     2.5650    -6.6370    -2.4270	H	1	ABL1     0.0900
108	H46     1.2440    -6.3320    -1.2440	H	1	ABL1     0.0900
109	H47    -0.4670    -7.0000    -2.9710	H	1	ABL1     0.0900
110	H48     0.8460    -7.2870    -4.1670	H	1	ABL1     0.0900
111	H49     1.8340    -9.0570    -2.6670	H	1	ABL1     0.0900
112	H50     0.5290    -8.7700    -1.4630	H	1	ABL1     0.0900
113	H51    -1.2010    -9.4400    -3.1720	H	1	ABL1     0.0900
114	H52     0.0980    -9.7140    -4.3850	H	1	ABL1     0.0900
115	H53     1.1150   -11.4850    -2.9030	H	1	ABL1     0.0900
116	H54    -0.1760   -11.2080    -1.6820	H	1	ABL1     0.0900
117	H55    -1.9250   -11.8790    -3.3730	H	1	ABL1     0.0900
118	H56    -0.6390   -12.1490    -4.6010	H	1	ABL1     0.0900
119	H57     0.3990   -13.9180    -3.1310	H	1	ABL1     0.0900
120	H58    -0.8790   -13.6450    -1.8950	H	1	ABL1     0.0900
121	H59    -2.6450   -14.3160    -3.5680	H	1	ABL1     0.0900
122	H60    -1.3710   -14.5870    -4.8080	H	1	ABL1     0.0900
123	H61    -0.3190   -16.3540    -3.3470	H	1	ABL1     0.0900
124	H62    -1.5850   -16.0800    -2.0990	H	1	ABL1     0.0900
125	H63    -3.3670   -16.7530    -3.7570	H	1	ABL1     0.0900
126	H64    -2.1020   -17.0250    -5.0070	H	1	ABL1     0.0900
127	H65    -1.0390   -18.7920    -3.5500	H	1	ABL1     0.0900
128	H66    -2.2970   -18.5160    -2.2940	H	1	ABL1     0.0900
129	H67    -4.0900   -19.1890    -3.9410	H	1	ABL1     0.0900
130	H68    -2.8330   -19.4640    -5.1980	H	1	ABL1     0.0900
131	H69    -1.7630   -21.2290    -3.7430	H	1	ABL1     0.0900
132	H70    -3.0160   -20.9520    -2.4830	H	1	ABL1     0.0900
133	H71    -4.8160   -21.6290    -4.1230	H	1	ABL1     0.0900
134	H72    -3.5630   -21.9060    -5.3850	H	1	ABL1     0.0900
135	H73    -4.2260   -24.0730    -4.2830	H	1	ABL1     0.0900
136	H74    -2.5000   -23.6990    -3.9370	H	1	ABL1     0.0900
137	H75    -3.7540   -23.4220    -2.6730	H	1	ABL1     0.0900
138	H76     5.7200     1.5220     0.1010	H	1	ABL1     0.0900
139	H77     6.4210     3.1240    -0.1190	H	1	ABL1     0.0900
140	H78     6.5690     1.9180    -1.4440	H	1	ABL1     0.0900
141	H79     4.0990     4.1550     0.4160	H	1	ABL1     0.0900
142	H80     2.6910     3.7560    -0.6370	H	1	ABL1     0.0900
143	H81     3.3340     2.5550     0.5280	H	1	ABL1     0.0900
144	H82     3.6070     5.9960    -1.5310	H	1	ABL1     0.1150
145	H83     4.6460     8.0670    -0.8710	H	1	ABL1     0.1150
@<TRIPOS>BOND
1	1	7	1
2	2	3	1
3	2	30	1
4	2	31	1
5	2	32	1
6	3	4	1
7	3	12	1
8	3	25	1
9	4	5	1
10	4	10	2
11	5	6	1
12	5	9	2
13	1	6	2
14	6	33	1
15	7	8	2
16	7	34	1
17	8	9	1
18	8	35	1
19	9	36	1
20	10	11	1
21	10	37	1
22	11	12	1
23	11	38	1
24	11	39	1
25	12	13	1
26	12	29	1
27	13	14	1
28	13	23	1
29	13	28	1
30	14	15	1
31	14	40	1
32	14	41	1
33	15	16	2
34	15	42	1
35	16	17	1
36	16	21	1
37	17	18	1
38	17	43	1
39	17	44	1
40	18	19	1
41	18	26	1
42	18	45	1
43	19	20	1
44	19	46	1
45	19	47	1
46	20	21	1
47	20	48	1
48	20	49	1
49	21	22	1
50	21	23	1
51	22	50	1
52	22	51	1
53	22	52	1
54	23	24	1
55	23	27	1
56	24	25	1
57	24	53	1
58	24	54	1
59	25	55	1
60	25	56	1
61	26	57	1
62	57	88	2
63	57	89	1
64	58	59	1
65	58	93	1
66	58	94	1
67	59	60	1
68	59	87	2
69	60	61	2
70	60	95	1
71	61	62	1
72	61	96	1
73	62	86	2
74	62	90	1
75	63	84	1
76	63	85	1
77	63	91	1
78	64	65	1
79	64	97	1
80	64	98	1
81	65	92	1
82	65	99	1
83	65	100	1
84	66	67	1
85	66	101	1
86	66	102	1
87	67	68	1
88	67	103	1
89	67	104	1
90	68	69	1
91	68	105	1
92	68	106	1
93	69	70	1
94	69	107	1
95	69	108	1
96	70	71	1
97	70	109	1
98	70	110	1
99	71	72	1
100	71	111	1
101	71	112	1
102	72	73	1
103	72	113	1
104	72	114	1
105	73	74	1
106	73	115	1
107	73	116	1
108	74	75	1
109	74	117	1
110	74	118	1
111	75	76	1
112	75	119	1
113	75	120	1
114	76	77	1
115	76	121	1
116	76	122	1
117	77	78	1
118	77	123	1
119	77	124	1
120	78	79	1
121	78	125	1
122	78	126	1
123	79	80	1
124	79	127	1
125	79	128	1
126	80	81	1
127	80	129	1
128	80	130	1
129	81	82	1
130	81	131	1
131	81	132	1
132	82	83	1
133	82	133	1
134	82	134	1
135	83	135	1
136	83	136	1
137	83	137	1
138	84	138	1
139	84	139	1
140	84	140	1
141	85	141	1
142	85	142	1
143	85	143	1
144	86	87	1
145	86	144	1
146	87	145	1
147	58	89	1
148	63	90	1
149	64	91	1
150	66	92	1
