@<TRIPOS>MOLECULE
PTX 
149 157 0 0 0
SMALL
USER_CHARGES
#CGenFF output mol2 file
@<TRIPOS>ATOM
1	C1     1.8420     2.7670    -0.3290	C.3	1	PTX1     0.4000
2	C2     1.1350     4.0930    -0.0490	C.3	1	PTX1    -0.2690
3	C3     3.1390     2.9970    -1.0960	C.3	1	PTX1    -0.2690
4	C4     0.5820     2.1040    -2.2630	C.3	1	PTX1     0.2000
5	C5    -0.9340     1.9220    -2.3840	C.3	1	PTX1    -0.2020
6	C6    -1.4020     2.1010    -3.8350	C.3	1	PTX1    -0.1740
7	C7    -0.6790     1.1190    -4.7720	C.3	1	PTX1    -0.0850
8	C8    -1.1260     1.3020    -6.2330	C.3	1	PTX1    -0.1950
9	C9    -0.3960     0.3210    -7.1610	C.3	1	PTX1    -0.1690
10	C10     1.1250     0.4780    -7.0350	C.3	1	PTX1    -0.1690
11	C11     1.5740     0.2970    -5.5780	C.3	1	PTX1    -0.1950
12	C12     0.8460     1.2830    -4.6480	C.3	1	PTX1    -0.0760
13	C13     1.2900     1.1060    -3.1860	C.3	1	PTX1    -0.2040
14	O1     0.9470     1.8610    -0.9340	O.3	1	PTX1    -0.4560
15	H1     0.9230     4.6740    -0.9730	H	1	PTX1     0.0900
16	H2     0.1660     3.9320     0.4770	H	1	PTX1     0.0900
17	H3     1.7630     4.7440     0.6010	H	1	PTX1     0.0900
18	H4     2.9760     3.5590    -2.0420	H	1	PTX1     0.0900
19	H5     3.6730     2.0600    -1.3630	H	1	PTX1     0.0900
20	H6     3.8420     3.6160    -0.4940	H	1	PTX1     0.0900
21	H7     0.8290     3.1450    -2.5670	H	1	PTX1     0.0900
22	H8    -1.4560     2.6610    -1.7290	H	1	PTX1     0.0900
23	H9    -1.2210     0.9060    -2.0230	H	1	PTX1     0.0900
24	H10    -2.5050     1.9440    -3.8960	H	1	PTX1     0.0900
25	H11    -1.2010     3.1490    -4.1620	H	1	PTX1     0.0900
26	H12    -0.9480     0.0800    -4.4560	H	1	PTX1     0.0900
27	H13    -2.2280     1.1470    -6.3160	H	1	PTX1     0.0900
28	H14    -0.9150     2.3480    -6.5600	H	1	PTX1     0.0900
29	H15    -0.7100     0.4930    -8.2190	H	1	PTX1     0.0900
30	H16    -0.6860    -0.7250    -6.8990	H	1	PTX1     0.0900
31	H17     1.6400    -0.2680    -7.6870	H	1	PTX1     0.0900
32	H18     1.4260     1.4910    -7.3940	H	1	PTX1     0.0900
33	H19     2.6780     0.4480    -5.5050	H	1	PTX1     0.0900
34	H20     1.3630    -0.7490    -5.2520	H	1	PTX1     0.0900
35	H21     1.1170     2.3210    -4.9670	H	1	PTX1     0.0900
36	H22     1.0680     0.0660    -2.8520	H	1	PTX1     0.0900
37	H23     2.3940     1.2370    -3.1220	H	1	PTX1     0.0900
38	N     0.5910     0.0570     1.4910	N.pl3	1	PTX1    -0.4040
39	C14     7.8020    -4.8490    -3.1470	C.3	1	PTX1    -0.3110
40	C15     8.3580    -4.7820    -1.7380	C.2	1	PTX1     0.8340
41	C16     8.5440    -3.2340     0.1010	C.3	1	PTX1     0.4320
42	C17    10.0660    -2.9250     0.0580	C.2	1	PTX1     0.2970
43	C18    10.6890    -1.6000    -0.4870	C.3	1	PTX1     0.0810
44	C19     9.8860    -1.1630    -1.7350	C.3	1	PTX1    -0.2630
45	C20    12.1290    -1.9210    -0.9870	C.3	1	PTX1     0.1660
46	C21    13.2200    -1.7640     0.0670	C.3	1	PTX1    -0.2010
47	C22    13.3130    -0.3480     0.6090	C.3	1	PTX1     0.0150
48	C23    12.3700     1.2730    -0.1600	C.3	1	PTX1    -0.1060
49	C24    11.9650     0.2940     0.9460	C.3	1	PTX1     0.3660
50	C25    12.8410     1.6630     2.7880	C.2	1	PTX1     0.8850
51	C26    12.4500     1.9520     4.2260	C.3	1	PTX1    -0.3130
52	C27    10.7070    -0.5610     0.6950	C.3	1	PTX1    -0.0740
53	C28     9.3840     0.2080     0.9370	C.3	1	PTX1     0.1330
54	C29     9.1520     2.5430     0.2170	C.2	1	PTX1     0.4590
55	C30     9.3840     3.8670     0.4780	C.2	1	PTX1     0.0860
56	C31     8.9280     4.8440    -0.3310	C.2	1	PTX1    -0.1100
57	C32     9.1690     6.1360    -0.0540	C.2	1	PTX1    -0.1140
58	C33     9.8710     6.4740     1.0370	C.2	1	PTX1    -0.1150
59	C34    10.3300     5.5120     1.8500	C.2	1	PTX1    -0.1140
60	C35    10.0870     4.2220     1.5710	C.2	1	PTX1    -0.1100
61	C36     8.4830    -0.2510     2.1150	C.3	1	PTX1     0.1860
62	C37     7.1300     0.4750     1.9990	C.3	1	PTX1    -0.2120
63	C38     6.3120    -0.0370     0.7990	C.3	1	PTX1     0.2720
64	C39     4.2650     1.1190     1.2710	C.2	1	PTX1     0.8500
65	C40     2.7730     0.9470     0.9510	C.3	1	PTX1     0.1830
66	C41     2.0050     0.0040     1.9060	C.3	1	PTX1     0.1270
67	C42    -0.4010    -0.8510     1.7430	C.2	1	PTX1     0.3410
68	C43    -0.3270    -1.8160     2.7050	C.2	1	PTX1    -0.1370
69	C44     0.3340    -1.6300     3.8630	C.2	1	PTX1    -0.0240
70	C45     0.3980    -2.5940     4.7950	C.2	1	PTX1    -0.1090
71	C46    -0.2140    -3.7690     4.5910	C.2	1	PTX1    -0.1150
72	C47    -0.9020    -3.9620     3.4570	C.2	1	PTX1    -0.1090
73	C48    -0.9630    -2.9920     2.5310	C.2	1	PTX1    -0.0240
74	C49     2.5390    -1.4150     1.8040	C.2	1	PTX1    -0.0400
75	C50     2.3870    -2.1310     0.6750	C.2	1	PTX1    -0.1060
76	C51     2.8590    -3.3840     0.5780	C.2	1	PTX1    -0.1150
77	C52     3.4860    -3.9470     1.6210	C.2	1	PTX1    -0.1150
78	C53     3.6410    -3.2480     2.7550	C.2	1	PTX1    -0.1150
79	C54     3.1810    -1.9900     2.8380	C.2	1	PTX1    -0.1060
80	C55     6.7650    -1.3810     0.2100	C.2	1	PTX1    -0.1530
81	C56     6.0800    -1.6960    -1.1060	C.3	1	PTX1    -0.2650
82	C57     7.7530    -2.1180     0.7770	C.2	1	PTX1    -0.1130
83	C58     8.1450    -1.7630     2.2110	C.3	1	PTX1     0.0160
84	C59     9.1910    -2.6370     2.9570	C.3	1	PTX1    -0.2690
85	C60     6.8900    -2.0950     3.0800	C.3	1	PTX1    -0.2690
86	O2     8.9580    -5.6770    -1.1880	O.co2	1	PTX1    -0.6250
87	O3     8.0810    -3.5640    -1.1970	O.3	1	PTX1    -0.4270
88	O4    10.8040    -3.7700     0.5210	O.2	1	PTX1    -0.5150
89	O5    12.4780    -1.1170    -2.0940	O.3	1	PTX1    -0.6420
90	O6    13.5960     0.6020    -0.3920	O.3	1	PTX1    -0.3430
91	O7    11.9430     0.7920     2.2510	O.3	1	PTX1    -0.4220
92	O8    13.8040     2.1480     2.2420	O.co2	1	PTX1    -0.6170
93	O9     9.6350     1.5830     1.0800	O.3	1	PTX1    -0.3100
94	O10     8.5180     2.2140    -0.7660	O.co2	1	PTX1    -0.4960
95	O11     9.1110     0.1710     3.2950	O.3	1	PTX1    -0.4600
96	O12     4.9230    -0.0480     1.0240	O.3	1	PTX1    -0.4320
97	O13     4.7910     2.1610     1.5930	O.co2	1	PTX1    -0.6230
98	O14     2.0840     2.1870     0.9390	O.3	1	PTX1    -0.5060
99	O15    -1.3030    -0.8400     0.9380	O.2	1	PTX1    -0.4580
100	H24     8.0180    -5.8380    -3.6110	H	1	PTX1     0.0900
101	H25     6.6980    -4.7060    -3.1340	H	1	PTX1     0.0900
102	H26     8.2640    -4.0590    -3.7820	H	1	PTX1     0.0900
103	H27     8.3640    -4.1260     0.7470	H	1	PTX1     0.0900
104	H28    10.1620    -0.1420    -2.0780	H	1	PTX1     0.0900
105	H29    10.0420    -1.8680    -2.5840	H	1	PTX1     0.0900
106	H30     8.7920    -1.1320    -1.5940	H	1	PTX1     0.0900
107	H31    12.1670    -2.9600    -1.3940	H	1	PTX1     0.0900
108	H32    13.3970    -0.8480    -2.0420	H	1	PTX1     0.4000
109	H33    13.0330    -2.4520     0.9230	H	1	PTX1     0.0900
110	H34    14.2090    -2.0550    -0.3620	H	1	PTX1     0.0900
111	H35    14.0820    -0.2760     1.4100	H	1	PTX1     0.0900
112	H36    12.5370     2.3280     0.1370	H	1	PTX1     0.0900
113	H37    11.7290     1.2220    -1.0640	H	1	PTX1     0.0900
114	H38    11.3990     2.3150     4.2840	H	1	PTX1     0.0900
115	H39    12.5470     1.0290     4.8420	H	1	PTX1     0.0900
116	H40    13.1080     2.7340     4.6660	H	1	PTX1     0.0900
117	H41    10.8400    -1.1980     1.5940	H	1	PTX1     0.0900
118	H42     8.7860     0.0710     0.0250	H	1	PTX1     0.0900
119	H43     8.3450     4.6290    -1.2410	H	1	PTX1     0.1150
120	H44     8.7890     6.9240    -0.7250	H	1	PTX1     0.1150
121	H45    10.0690     7.5350     1.2640	H	1	PTX1     0.1150
122	H46    10.9100     5.7840     2.7490	H	1	PTX1     0.1150
123	H47    10.4890     3.4740     2.2730	H	1	PTX1     0.1150
124	H48     9.2760     1.1170     3.2360	H	1	PTX1     0.2920
125	H49     7.2970     1.5730     1.9270	H	1	PTX1     0.0900
126	H50     6.5570     0.3820     2.9480	H	1	PTX1     0.0900
127	H51     6.4840     0.6860    -0.0390	H	1	PTX1     0.0900
128	H52     2.7340     0.4920    -0.0640	H	1	PTX1     0.0900
129	H53     2.1190     0.4420     2.9230	H	1	PTX1     0.0900
130	H54     0.3430     0.7710     0.8070	H	1	PTX1     0.2740
131	H55     0.8090    -0.6700     4.1100	H	1	PTX1     0.1150
132	H56     0.9410    -2.4160     5.7380	H	1	PTX1     0.1150
133	H57    -0.1660    -4.5620     5.3560	H	1	PTX1     0.1150
134	H58    -1.4160    -4.9230     3.2870	H	1	PTX1     0.1150
135	H59    -1.5350    -3.2120     1.6130	H	1	PTX1     0.1150
136	H60     1.8680    -1.6940    -0.1940	H	1	PTX1     0.1150
137	H61     2.7280    -3.9520    -0.3580	H	1	PTX1     0.1150
138	H62     3.8720    -4.9770     1.5470	H	1	PTX1     0.1150
139	H63     4.1560    -3.7040     3.6160	H	1	PTX1     0.1150
140	H64     3.3350    -1.4290     3.7740	H	1	PTX1     0.1150
141	H65     6.7110    -1.4430    -1.9850	H	1	PTX1     0.0900
142	H66     5.7540    -2.7580    -1.1500	H	1	PTX1     0.0900
143	H67     5.1350    -1.1260    -1.2380	H	1	PTX1     0.0900
144	H68     9.2900    -2.3180     4.0200	H	1	PTX1     0.0900
145	H69     8.9040    -3.7120     2.9810	H	1	PTX1     0.0900
146	H70    10.2260    -2.6370     2.5870	H	1	PTX1     0.0900
147	H71     6.9970    -1.7260     4.1250	H	1	PTX1     0.0900
148	H72     5.9310    -1.6990     2.6970	H	1	PTX1     0.0900
149	H73     6.7070    -3.1920     3.1310	H	1	PTX1     0.0900
@<TRIPOS>BOND
1	1	2	1
2	1	3	1
3	1	14	1
4	2	15	1
5	2	16	1
6	2	17	1
7	3	18	1
8	3	19	1
9	3	20	1
10	4	5	1
11	4	13	1
12	4	21	1
13	5	6	1
14	5	22	1
15	5	23	1
16	6	7	1
17	6	24	1
18	6	25	1
19	7	8	1
20	7	12	1
21	7	26	1
22	8	9	1
23	8	27	1
24	8	28	1
25	9	10	1
26	9	29	1
27	9	30	1
28	10	11	1
29	10	31	1
30	10	32	1
31	11	12	1
32	11	33	1
33	11	34	1
34	12	13	1
35	12	35	1
36	13	36	1
37	13	37	1
38	4	14	1
39	38	67	1
40	38	130	1
41	39	40	1
42	39	100	1
43	39	101	1
44	39	102	1
45	40	86	2
46	40	87	1
47	41	42	1
48	41	82	1
49	41	103	1
50	42	43	1
51	42	88	2
52	43	44	1
53	43	45	1
54	43	52	1
55	44	104	1
56	44	105	1
57	44	106	1
58	45	46	1
59	45	89	1
60	45	107	1
61	46	47	1
62	46	109	1
63	46	110	1
64	47	49	1
65	47	90	1
66	47	111	1
67	48	49	1
68	48	112	1
69	48	113	1
70	49	52	1
71	49	91	1
72	50	51	1
73	50	92	2
74	51	114	1
75	51	115	1
76	51	116	1
77	52	53	1
78	52	117	1
79	53	61	1
80	53	93	1
81	53	118	1
82	54	55	1
83	54	94	2
84	55	56	1
85	55	60	2
86	56	57	2
87	56	119	1
88	57	58	1
89	57	120	1
90	58	59	2
91	58	121	1
92	59	60	1
93	59	122	1
94	60	123	1
95	61	62	1
96	61	83	1
97	61	95	1
98	62	63	1
99	62	125	1
100	62	126	1
101	63	80	1
102	63	96	1
103	63	127	1
104	64	65	1
105	64	97	2
106	65	66	1
107	65	98	1
108	65	128	1
109	38	66	1
110	66	74	1
111	66	129	1
112	67	68	1
113	67	99	2
114	68	69	1
115	68	73	2
116	69	70	2
117	69	131	1
118	70	71	1
119	70	132	1
120	71	72	2
121	71	133	1
122	72	73	1
123	72	134	1
124	73	135	1
125	74	75	1
126	74	79	2
127	75	76	2
128	75	136	1
129	76	77	1
130	76	137	1
131	77	78	2
132	77	138	1
133	78	79	1
134	78	139	1
135	79	140	1
136	80	81	1
137	80	82	2
138	81	141	1
139	81	142	1
140	81	143	1
141	82	83	1
142	83	84	1
143	83	85	1
144	84	144	1
145	84	145	1
146	84	146	1
147	85	147	1
148	85	148	1
149	85	149	1
150	41	87	1
151	89	108	1
152	48	90	1
153	50	91	1
154	54	93	1
155	95	124	1
156	64	96	1
157	1	98	1
