# created with PyMOL 2.5.4
@<TRIPOS>MOLECULE
ABI
145 150 2               
SMALL
USER_CHARGES
@<TRIPOS>ATOM
1	   N	18.347	14.933	4.408	N.2	1	ABI1	0.000	
2	   C	16.323	11.004	5.797	C.3	1	ABI1	0.000	
3	   C	16.214	11.191	4.269	C.3	1	ABI1	0.000	
4	   C	17.630	11.501	3.756	C.2	1	ABI1	0.000	
5	   C	18.282	12.686	3.770	C.2	1	ABI1	0.000	
6	   C	17.790	13.797	4.356	C.2	1	ABI1	0.000	
7	   C	19.479	15.063	3.864	C.2	1	ABI1	0.000	
8	   C	20.106	14.052	3.247	C.2	1	ABI1	0.000	
9	   C	19.498	12.857	3.208	C.2	1	ABI1	0.000	
10	   C	18.184	10.338	3.357	C.2	1	ABI1	0.000	
11	   C	17.283	9.137	3.474	C.3	1	ABI1	0.000	
12	   C	15.943	9.877	3.492	C.3	1	ABI1	0.000	
13	   C	14.685	9.121	3.932	C.3	1	ABI1	0.000	
14	   C	14.558	7.792	3.175	C.3	1	ABI1	0.000	
15	   C	13.170	7.224	3.207	C.2	1	ABI1	0.000	
16	   C	12.087	7.895	3.628	C.2	1	ABI1	0.000	
17	   C	10.705	7.304	3.483	C.3	1	ABI1	0.000	
18	   C	9.975	8.057	2.364	C.3	1	ABI1	0.000	
19	   C	10.402	9.533	2.306	C.3	1	ABI1	0.000	
20	   C	10.861	10.039	3.682	C.3	1	ABI1	0.000	
21	   C	12.140	9.313	4.183	C.3	1	ABI1	0.000	
22	   C	12.075	9.223	5.726	C.3	1	ABI1	0.000	
23	   C	13.444	10.013	3.693	C.3	1	ABI1	0.000	
24	   C	13.668	11.442	4.240	C.3	1	ABI1	0.000	
25	   C	15.023	12.089	3.876	C.3	1	ABI1	0.000	
26	   O	8.600	7.936	2.589	O.3	1	ABI1	0.000	
27	   H	13.354	10.125	2.582	 H	1	ABI1	0.000	
28	   H	14.779	8.885	5.016	 H	1	ABI1	0.000	
29	   H	15.768	10.151	2.417	 H	1	ABI1	0.000	
30	   H	17.120	10.279	6.075	 H	1	ABI1	0.000	
31	   H	16.569	11.963	6.303	 H	1	ABI1	0.000	
32	   H	15.389	10.635	6.270	 H	1	ABI1	0.000	
33	   H	16.831	13.792	4.888	 H	1	ABI1	0.000	
34	   H	19.946	16.061	3.919	 H	1	ABI1	0.000	
35	   H	21.095	14.204	2.783	 H	1	ABI1	0.000	
36	   H	20.040	12.056	2.684	 H	1	ABI1	0.000	
37	   H	19.210	10.181	3.000	 H	1	ABI1	0.000	
38	   H	17.380	8.457	2.598	 H	1	ABI1	0.000	
39	   H	17.487	8.578	4.414	 H	1	ABI1	0.000	
40	   H	14.814	7.936	2.099	 H	1	ABI1	0.000	
41	   H	15.272	7.045	3.595	 H	1	ABI1	0.000	
42	   H	13.045	6.216	2.778	 H	1	ABI1	0.000	
43	   H	10.733	6.214	3.253	 H	1	ABI1	0.000	
44	   H	10.165	7.396	4.452	 H	1	ABI1	0.000	
45	   H	10.233	7.564	1.395	 H	1	ABI1	0.000	
46	   H	9.576	10.176	1.923	 H	1	ABI1	0.000	
47	   H	11.243	9.655	1.583	 H	1	ABI1	0.000	
48	   H	10.011	9.867	4.384	 H	1	ABI1	0.000	
49	   H	10.996	11.142	3.667	 H	1	ABI1	0.000	
50	   H	11.995	10.225	6.199	 H	1	ABI1	0.000	
51	   H	11.186	8.653	6.076	 H	1	ABI1	0.000	
52	   H	12.956	8.706	6.162	 H	1	ABI1	0.000	
53	   H	12.866	12.125	3.874	 H	1	ABI1	0.000	
54	   H	13.576	11.439	5.347	 H	1	ABI1	0.000	
55	   H	15.051	12.301	2.782	 H	1	ABI1	0.000	
56	   H	15.054	13.077	4.383	 H	1	ABI1	0.000	
57	   C	7.733	8.142	1.549	C.2	2	ABL1	0.000	
58	   C	7.290	8.643	-0.751	C.3	2	ABL1	0.000	
59	   C	6.621	7.346	-1.152	C.2	2	ABL1	0.000	
60	   C	7.352	6.295	-1.557	C.2	2	ABL1	0.000	
61	   C	6.764	5.143	-1.912	C.2	2	ABL1	0.000	
62	   C	5.431	4.964	-1.826	C.2	2	ABL1	0.000	
63	   C	4.574	2.820	-1.262	C.3	2	ABL1	0.000	
64	   C	3.895	0.538	-1.547	C.3	2	ABL1	0.000	
65	   C	2.952	-0.298	-2.401	C.3	2	ABL1	0.000	
66	   C	2.126	-2.472	-2.667	C.3	2	ABL1	0.000	
67	   C	2.251	-3.892	-2.114	C.3	2	ABL1	0.000	
68	   C	1.351	-4.884	-2.868	C.3	2	ABL1	0.000	
69	   C	1.500	-6.316	-2.330	C.3	2	ABL1	0.000	
70	   C	0.599	-7.312	-3.079	C.3	2	ABL1	0.000	
71	   C	0.769	-8.746	-2.553	C.3	2	ABL1	0.000	
72	   C	-0.135	-9.744	-3.295	C.3	2	ABL1	0.000	
73	   C	0.049	-11.179	-2.774	C.3	2	ABL1	0.000	
74	   C	-0.859	-12.180	-3.507	C.3	2	ABL1	0.000	
75	   C	-0.666	-13.615	-2.990	C.3	2	ABL1	0.000	
76	   C	-1.581	-14.617	-3.713	C.3	2	ABL1	0.000	
77	   C	-1.382	-16.052	-3.196	C.3	2	ABL1	0.000	
78	   C	-2.303	-17.055	-3.910	C.3	2	ABL1	0.000	
79	   C	-2.101	-18.488	-3.392	C.3	2	ABL1	0.000	
80	   C	-3.027	-19.491	-4.099	C.3	2	ABL1	0.000	
81	   C	-2.824	-20.925	-3.582	C.3	2	ABL1	0.000	
82	   C	-3.753	-21.928	-4.285	C.3	2	ABL1	0.000	
83	   C	-3.546	-23.357	-3.766	C.3	2	ABL1	0.000	
84	   C	5.883	2.315	-0.662	C.3	2	ABL1	0.000	
85	   C	3.627	3.351	-0.191	C.3	2	ABL1	0.000	
86	   C	4.709	6.055	-1.510	C.2	2	ABL1	0.000	
87	   C	5.284	7.214	-1.153	C.2	2	ABL1	0.000	
88	   O	6.538	8.035	1.750	O.2	2	ABL1	0.000	
89	   O	8.210	8.462	0.306	O.3	2	ABL1	0.000	
90	   O	4.835	3.802	-2.247	O.3	2	ABL1	0.000	
91	   O	3.905	1.851	-2.049	O.3	2	ABL1	0.000	
92	   O	2.977	-1.624	-1.934	O.3	2	ABL1	0.000	
93	   H	6.568	9.443	-0.476	 H	2	ABL1	0.000	
94	   H	7.869	9.026	-1.624	 H	2	ABL1	0.000	
95	   H	8.450	6.383	-1.614	 H	2	ABL1	0.000	
96	   H	7.396	4.314	-2.273	 H	2	ABL1	0.000	
97	   H	4.919	0.104	-1.615	 H	2	ABL1	0.000	
98	   H	3.544	0.531	-0.491	 H	2	ABL1	0.000	
99	   H	1.914	0.104	-2.327	 H	2	ABL1	0.000	
100	   H	3.283	-0.274	-3.466	 H	2	ABL1	0.000	
101	   H	1.075	-2.115	-2.568	 H	2	ABL1	0.000	
102	   H	2.424	-2.457	-3.741	 H	2	ABL1	0.000	
103	   H	3.314	-4.224	-2.192	 H	2	ABL1	0.000	
104	   H	1.981	-3.893	-1.031	 H	2	ABL1	0.000	
105	   H	0.286	-4.561	-2.775	 H	2	ABL1	0.000	
106	   H	1.611	-4.868	-3.953	 H	2	ABL1	0.000	
107	   H	2.565	-6.637	-2.427	 H	2	ABL1	0.000	
108	   H	1.244	-6.332	-1.244	 H	2	ABL1	0.000	
109	   H	-0.467	-7.000	-2.971	 H	2	ABL1	0.000	
110	   H	0.846	-7.287	-4.167	 H	2	ABL1	0.000	
111	   H	1.834	-9.057	-2.667	 H	2	ABL1	0.000	
112	   H	0.529	-8.770	-1.463	 H	2	ABL1	0.000	
113	   H	-1.201	-9.440	-3.172	 H	2	ABL1	0.000	
114	   H	0.098	-9.714	-4.385	 H	2	ABL1	0.000	
115	   H	1.115	-11.485	-2.903	 H	2	ABL1	0.000	
116	   H	-0.176	-11.208	-1.682	 H	2	ABL1	0.000	
117	   H	-1.925	-11.879	-3.373	 H	2	ABL1	0.000	
118	   H	-0.639	-12.149	-4.601	 H	2	ABL1	0.000	
119	   H	0.399	-13.918	-3.131	 H	2	ABL1	0.000	
120	   H	-0.879	-13.645	-1.895	 H	2	ABL1	0.000	
121	   H	-2.645	-14.316	-3.568	 H	2	ABL1	0.000	
122	   H	-1.371	-14.587	-4.808	 H	2	ABL1	0.000	
123	   H	-0.319	-16.354	-3.347	 H	2	ABL1	0.000	
124	   H	-1.585	-16.080	-2.099	 H	2	ABL1	0.000	
125	   H	-3.367	-16.753	-3.757	 H	2	ABL1	0.000	
126	   H	-2.102	-17.025	-5.007	 H	2	ABL1	0.000	
127	   H	-1.039	-18.792	-3.550	 H	2	ABL1	0.000	
128	   H	-2.297	-18.516	-2.294	 H	2	ABL1	0.000	
129	   H	-4.090	-19.189	-3.941	 H	2	ABL1	0.000	
130	   H	-2.833	-19.464	-5.198	 H	2	ABL1	0.000	
131	   H	-1.763	-21.229	-3.743	 H	2	ABL1	0.000	
132	   H	-3.016	-20.952	-2.483	 H	2	ABL1	0.000	
133	   H	-4.816	-21.629	-4.123	 H	2	ABL1	0.000	
134	   H	-3.563	-21.906	-5.385	 H	2	ABL1	0.000	
135	   H	-4.226	-24.073	-4.283	 H	2	ABL1	0.000	
136	   H	-2.500	-23.699	-3.937	 H	2	ABL1	0.000	
137	   H	-3.754	-23.422	-2.673	 H	2	ABL1	0.000	
138	   H	5.720	1.522	0.101	 H	2	ABL1	0.000	
139	   H	6.421	3.124	-0.119	 H	2	ABL1	0.000	
140	   H	6.569	1.918	-1.444	 H	2	ABL1	0.000	
141	   H	4.099	4.155	0.416	 H	2	ABL1	0.000	
142	   H	2.691	3.756	-0.637	 H	2	ABL1	0.000	
143	   H	3.334	2.555	0.528	 H	2	ABL1	0.000	
144	   H	3.607	5.996	-1.531	 H	2	ABL1	0.000	
145	   H	4.646	8.067	-0.871	 H	2	ABL1	0.000	
@<TRIPOS>BOND
1 1 7 1
2 2 3 1
3 2 30 1
4 2 31 1
5 2 32 1
6 3 4 1
7 3 12 1
8 3 25 1
9 4 5 1
10 4 10 2
11 5 6 1
12 5 9 2
13 1 6 2
14 6 33 1
15 7 8 2
16 7 34 1
17 8 9 1
18 8 35 1
19 9 36 1
20 10 11 1
21 10 37 1
22 11 12 1
23 11 38 1
24 11 39 1
25 12 13 1
26 12 29 1
27 13 14 1
28 13 23 1
29 13 28 1
30 14 15 1
31 14 40 1
32 14 41 1
33 15 16 2
34 15 42 1
35 16 17 1
36 16 21 1
37 17 18 1
38 17 43 1
39 17 44 1
40 18 19 1
41 18 26 1
42 18 45 1
43 19 20 1
44 19 46 1
45 19 47 1
46 20 21 1
47 20 48 1
48 20 49 1
49 21 22 1
50 21 23 1
51 22 50 1
52 22 51 1
53 22 52 1
54 23 24 1
55 23 27 1
56 24 25 1
57 24 53 1
58 24 54 1
59 25 55 1
60 25 56 1
61 26 57 1
62 57 88 2
63 57 89 1
64 58 59 1
65 58 93 1
66 58 94 1
67 59 60 1
68 59 87 2
69 60 61 2
70 60 95 1
71 61 62 1
72 61 96 1
73 62 86 2
74 62 90 1
75 63 84 1
76 63 85 1
77 63 91 1
78 64 65 1
79 64 97 1
80 64 98 1
81 65 92 1
82 65 99 1
83 65 100 1
84 66 67 1
85 66 101 1
86 66 102 1
87 67 68 1
88 67 103 1
89 67 104 1
90 68 69 1
91 68 105 1
92 68 106 1
93 69 70 1
94 69 107 1
95 69 108 1
96 70 71 1
97 70 109 1
98 70 110 1
99 71 72 1
100 71 111 1
101 71 112 1
102 72 73 1
103 72 113 1
104 72 114 1
105 73 74 1
106 73 115 1
107 73 116 1
108 74 75 1
109 74 117 1
110 74 118 1
111 75 76 1
112 75 119 1
113 75 120 1
114 76 77 1
115 76 121 1
116 76 122 1
117 77 78 1
118 77 123 1
119 77 124 1
120 78 79 1
121 78 125 1
122 78 126 1
123 79 80 1
124 79 127 1
125 79 128 1
126 80 81 1
127 80 129 1
128 80 130 1
129 81 82 1
130 81 131 1
131 81 132 1
132 82 83 1
133 82 133 1
134 82 134 1
135 83 135 1
136 83 136 1
137 83 137 1
138 84 138 1
139 84 139 1
140 84 140 1
141 85 141 1
142 85 142 1
143 85 143 1
144 86 87 1
145 86 144 1
146 87 145 1
147 58 89 1
148 63 90 1
149 64 91 1
150 66 92 1
@<TRIPOS>SUBSTRUCTURE
1	ABI1	1	GROUP	1 ****	ABI
2	ABL1	57	GROUP	1 ****	ABL
