# created with PyMOL 2.5.4
@<TRIPOS>MOLECULE
PTX
175 181 2               
SMALL
USER_CHARGES
@<TRIPOS>ATOM
1	   C	-9.285	-20.662	3.380	C.3	1	PTL1	0.000	
2	   C	-9.301	-19.321	2.634	C.3	1	PTL1	0.000	
3	   C	-8.415	-18.272	3.325	C.3	1	PTL1	0.000	
4	   C	-8.432	-16.926	2.582	C.3	1	PTL1	0.000	
5	   C	-7.549	-15.875	3.275	C.3	1	PTL1	0.000	
6	   C	-7.573	-14.527	2.537	C.3	1	PTL1	0.000	
7	   C	-6.700	-13.472	3.235	C.3	1	PTL1	0.000	
8	   C	-6.740	-12.121	2.503	C.3	1	PTL1	0.000	
9	   C	-5.894	-11.092	3.212	C.2	1	PTL1	0.000	
10	   C	-4.852	-10.460	2.651	C.2	1	PTL1	0.000	
11	   C	-4.021	-9.417	3.358	C.3	1	PTL1	0.000	
12	   C	-4.231	-8.032	2.728	C.3	1	PTL1	0.000	
13	   C	-3.418	-6.942	3.446	C.3	1	PTL1	0.000	
14	   C	-3.651	-5.553	2.828	C.3	1	PTL1	0.000	
15	   C	-2.862	-4.456	3.561	C.3	1	PTL1	0.000	
16	   C	-3.117	-3.066	2.953	C.3	1	PTL1	0.000	
17	   C	-2.350	-1.961	3.696	C.3	1	PTL1	0.000	
18	   C	-2.624	-0.582	3.092	C.3	1	PTL1	0.000	
19	   C	-1.873	1.680	3.253	C.3	1	PTL1	0.000	
20	   C	-3.255	2.128	2.769	C.3	1	PTL1	0.000	
21	   C	-1.459	2.646	4.368	C.3	1	PTL1	0.000	
22	   O	-1.884	0.382	3.799	O.3	1	PTL1	0.000	
23	   H	-9.931	-21.412	2.868	 H	1	PTL1	0.000	
24	   H	-8.254	-21.082	3.431	 H	1	PTL1	0.000	
25	   H	-9.660	-20.547	4.422	 H	1	PTL1	0.000	
26	   H	-10.351	-18.946	2.578	 H	1	PTL1	0.000	
27	   H	-8.947	-19.479	1.587	 H	1	PTL1	0.000	
28	   H	-7.367	-18.652	3.380	 H	1	PTL1	0.000	
29	   H	-8.771	-18.121	4.372	 H	1	PTL1	0.000	
30	   H	-9.480	-16.549	2.525	 H	1	PTL1	0.000	
31	   H	-8.074	-17.077	1.536	 H	1	PTL1	0.000	
32	   H	-6.499	-16.249	3.329	 H	1	PTL1	0.000	
33	   H	-7.905	-15.728	4.323	 H	1	PTL1	0.000	
34	   H	-8.624	-14.156	2.480	 H	1	PTL1	0.000	
35	   H	-7.213	-14.672	1.490	 H	1	PTL1	0.000	
36	   H	-5.645	-13.834	3.283	 H	1	PTL1	0.000	
37	   H	-7.056	-13.337	4.284	 H	1	PTL1	0.000	
38	   H	-7.787	-11.740	2.461	 H	1	PTL1	0.000	
39	   H	-6.395	-12.256	1.452	 H	1	PTL1	0.000	
40	   H	-6.172	-10.855	4.252	 H	1	PTL1	0.000	
41	   H	-4.578	-10.686	1.607	 H	1	PTL1	0.000	
42	   H	-4.288	-9.376	4.439	 H	1	PTL1	0.000	
43	   H	-2.948	-9.714	3.295	 H	1	PTL1	0.000	
44	   H	-3.939	-8.062	1.651	 H	1	PTL1	0.000	
45	   H	-5.316	-7.772	2.772	 H	1	PTL1	0.000	
46	   H	-3.705	-6.918	4.524	 H	1	PTL1	0.000	
47	   H	-2.332	-7.195	3.394	 H	1	PTL1	0.000	
48	   H	-3.351	-5.571	1.753	 H	1	PTL1	0.000	
49	   H	-4.739	-5.312	2.866	 H	1	PTL1	0.000	
50	   H	-3.156	-4.446	4.637	 H	1	PTL1	0.000	
51	   H	-1.772	-4.687	3.514	 H	1	PTL1	0.000	
52	   H	-2.812	-3.071	1.880	 H	1	PTL1	0.000	
53	   H	-4.210	-2.843	2.989	 H	1	PTL1	0.000	
54	   H	-2.647	-1.958	4.772	 H	1	PTL1	0.000	
55	   H	-1.257	-2.182	3.656	 H	1	PTL1	0.000	
56	   H	-2.336	-0.577	2.019	 H	1	PTL1	0.000	
57	   H	-3.712	-0.367	3.191	 H	1	PTL1	0.000	
58	   H	-3.239	3.204	2.480	 H	1	PTL1	0.000	
59	   H	-4.032	2.011	3.558	 H	1	PTL1	0.000	
60	   H	-3.591	1.580	1.860	 H	1	PTL1	0.000	
61	   H	-0.557	2.326	4.932	 H	1	PTL1	0.000	
62	   H	-1.286	3.677	3.991	 H	1	PTL1	0.000	
63	   H	-2.263	2.718	5.136	 H	1	PTL1	0.000	
64	   N	5.686	10.104	-4.190	N.pl3	2	PTX1	0.000	
65	   C	0.356	1.511	2.286	C.3	2	PTX1	0.000	
66	   C	0.696	0.059	1.935	C.3	2	PTX1	0.000	
67	   C	0.514	-0.312	0.474	C.3	2	PTX1	0.000	
68	   C	-0.352	0.860	-0.933	C.3	2	PTX1	0.000	
69	   C	1.108	0.703	-0.503	C.3	2	PTX1	0.000	
70	   C	1.679	-0.950	-2.229	C.2	2	PTX1	0.000	
71	   C	2.909	-1.308	-3.042	C.3	2	PTX1	0.000	
72	   C	1.782	1.940	0.118	C.3	2	PTX1	0.000	
73	   C	2.252	2.966	-0.947	C.3	2	PTX1	0.000	
74	   C	0.889	3.420	-2.926	C.2	2	PTX1	0.000	
75	   C	0.778	3.277	-4.282	C.2	2	PTX1	0.000	
76	   C	-0.049	4.049	-5.014	C.2	2	PTX1	0.000	
77	   C	-0.134	3.898	-6.346	C.2	2	PTX1	0.000	
78	   C	0.604	2.970	-6.970	C.2	2	PTX1	0.000	
79	   C	1.427	2.191	-6.253	C.2	2	PTX1	0.000	
80	   C	1.511	2.344	-4.922	C.2	2	PTX1	0.000	
81	   C	3.772	3.251	-1.088	C.3	2	PTX1	0.000	
82	   C	3.949	4.470	-2.014	C.3	2	PTX1	0.000	
83	   C	3.484	5.766	-1.327	C.3	2	PTX1	0.000	
84	   C	5.051	7.646	-1.317	C.2	2	PTX1	0.000	
85	   C	5.709	8.583	-2.321	C.3	2	PTX1	0.000	
86	   C	4.863	9.095	-3.502	C.3	2	PTX1	0.000	
87	   C	5.573	10.552	-5.478	C.2	2	PTX1	0.000	
88	   C	4.473	10.355	-6.263	C.2	2	PTX1	0.000	
89	   C	3.226	10.314	-5.759	C.2	2	PTX1	0.000	
90	   C	2.159	10.113	-6.548	C.2	2	PTX1	0.000	
91	   C	2.318	9.961	-7.870	C.2	2	PTX1	0.000	
92	   C	3.549	10.031	-8.394	C.2	2	PTX1	0.000	
93	   C	4.612	10.234	-7.599	C.2	2	PTX1	0.000	
94	   C	4.492	7.949	-4.431	C.2	2	PTX1	0.000	
95	   C	5.430	7.310	-5.154	C.2	2	PTX1	0.000	
96	   C	5.107	6.283	-5.956	C.2	2	PTX1	0.000	
97	   C	3.833	5.872	-6.046	C.2	2	PTX1	0.000	
98	   C	2.887	6.499	-5.332	C.2	2	PTX1	0.000	
99	   C	3.218	7.524	-4.534	C.2	2	PTX1	0.000	
100	   C	3.335	5.732	0.193	C.2	2	PTX1	0.000	
101	   C	2.581	6.934	0.729	C.3	2	PTX1	0.000	
102	   C	3.682	4.627	0.903	C.2	2	PTX1	0.000	
103	   C	3.187	4.285	2.309	C.3	2	PTX1	0.000	
104	   C	2.013	5.229	4.193	C.2	2	PTX1	0.000	
105	   C	1.173	6.439	4.552	C.3	2	PTX1	0.000	
106	   C	2.455	2.915	2.336	C.2	2	PTX1	0.000	
107	   C	1.212	2.542	1.461	C.3	2	PTX1	0.000	
108	   C	0.353	3.814	1.264	C.3	2	PTX1	0.000	
109	   C	4.569	3.592	0.201	C.3	2	PTX1	0.000	
110	   C	5.942	4.295	-0.048	C.3	2	PTX1	0.000	
111	   C	5.088	2.359	0.991	C.3	2	PTX1	0.000	
112	   O	-1.024	1.736	2.124	O.3	2	PTX1	0.000	
113	   O	-0.793	-0.125	-0.018	O.3	2	PTX1	0.000	
114	   O	1.984	0.083	-1.398	O.3	2	PTX1	0.000	
115	   O	0.616	-1.517	-2.333	O.co2	2	PTX1	0.000	
116	   O	1.767	2.626	-2.221	O.3	2	PTX1	0.000	
117	   O	0.259	4.282	-2.344	O.co2	2	PTX1	0.000	
118	   O	4.335	2.133	-1.719	O.3	2	PTX1	0.000	
119	   O	4.122	6.870	-1.920	O.3	2	PTX1	0.000	
120	   O	5.407	7.637	-0.162	O.co2	2	PTX1	0.000	
121	   O	6.181	9.705	-1.592	O.3	2	PTX1	0.000	
122	   O	6.594	11.008	-5.939	O.2	2	PTX1	0.000	
123	   O	2.393	5.306	2.889	O.3	2	PTX1	0.000	
124	   O	2.286	4.326	4.949	O.co2	2	PTX1	0.000	
125	   O	2.933	2.063	3.058	O.2	2	PTX1	0.000	
126	   H	0.585	1.652	3.363	 H	2	PTX1	0.000	
127	   H	1.763	-0.141	2.192	 H	2	PTX1	0.000	
128	   H	0.118	-0.655	2.561	 H	2	PTX1	0.000	
129	   H	0.819	-1.367	0.290	 H	2	PTX1	0.000	
130	   H	-0.604	0.591	-1.978	 H	2	PTX1	0.000	
131	   H	-0.797	1.840	-0.663	 H	2	PTX1	0.000	
132	   H	3.283	-0.420	-3.601	 H	2	PTX1	0.000	
133	   H	3.718	-1.680	-2.373	 H	2	PTX1	0.000	
134	   H	2.677	-2.106	-3.782	 H	2	PTX1	0.000	
135	   H	2.705	1.411	0.434	 H	2	PTX1	0.000	
136	   H	1.804	3.930	-0.672	 H	2	PTX1	0.000	
137	   H	-0.678	4.832	-4.559	 H	2	PTX1	0.000	
138	   H	-0.812	4.542	-6.932	 H	2	PTX1	0.000	
139	   H	0.535	2.847	-8.063	 H	2	PTX1	0.000	
140	   H	2.036	1.424	-6.760	 H	2	PTX1	0.000	
141	   H	2.205	1.676	-4.385	 H	2	PTX1	0.000	
142	   H	3.808	1.917	-2.495	 H	2	PTX1	0.000	
143	   H	3.423	4.341	-2.987	 H	2	PTX1	0.000	
144	   H	5.006	4.546	-2.350	 H	2	PTX1	0.000	
145	   H	2.415	5.877	-1.652	 H	2	PTX1	0.000	
146	   H	6.617	8.049	-2.687	 H	2	PTX1	0.000	
147	   H	6.433	9.412	-0.708	 H	2	PTX1	0.000	
148	   H	3.972	9.588	-3.049	 H	2	PTX1	0.000	
149	   H	6.526	10.415	-3.703	 H	2	PTX1	0.000	
150	   H	3.028	10.484	-4.691	 H	2	PTX1	0.000	
151	   H	1.146	10.087	-6.113	 H	2	PTX1	0.000	
152	   H	1.443	9.798	-8.522	 H	2	PTX1	0.000	
153	   H	3.687	9.917	-9.483	 H	2	PTX1	0.000	
154	   H	5.601	10.271	-8.085	 H	2	PTX1	0.000	
155	   H	6.484	7.625	-5.092	 H	2	PTX1	0.000	
156	   H	5.891	5.771	-6.539	 H	2	PTX1	0.000	
157	   H	3.564	5.025	-6.699	 H	2	PTX1	0.000	
158	   H	1.838	6.167	-5.396	 H	2	PTX1	0.000	
159	   H	2.423	8.014	-3.947	 H	2	PTX1	0.000	
160	   H	1.493	6.739	0.841	 H	2	PTX1	0.000	
161	   H	3.011	7.302	1.685	 H	2	PTX1	0.000	
162	   H	2.657	7.806	0.043	 H	2	PTX1	0.000	
163	   H	4.111	4.219	2.932	 H	2	PTX1	0.000	
164	   H	1.760	7.375	4.411	 H	2	PTX1	0.000	
165	   H	0.263	6.479	3.911	 H	2	PTX1	0.000	
166	   H	0.846	6.390	5.615	 H	2	PTX1	0.000	
167	   H	-0.480	3.656	0.545	 H	2	PTX1	0.000	
168	   H	-0.081	4.167	2.224	 H	2	PTX1	0.000	
169	   H	0.895	4.695	0.882	 H	2	PTX1	0.000	
170	   H	6.621	3.675	-0.677	 H	2	PTX1	0.000	
171	   H	5.897	5.284	-0.538	 H	2	PTX1	0.000	
172	   H	6.471	4.507	0.910	 H	2	PTX1	0.000	
173	   H	5.850	1.796	0.406	 H	2	PTX1	0.000	
174	   H	5.577	2.647	1.948	 H	2	PTX1	0.000	
175	   H	4.364	1.573	1.251	 H	2	PTX1	0.000	
@<TRIPOS>BOND
1 1 2 1
2 1 23 1
3 1 24 1
4 1 25 1
5 2 3 1
6 2 26 1
7 2 27 1
8 3 4 1
9 3 28 1
10 3 29 1
11 4 5 1
12 4 30 1
13 4 31 1
14 5 6 1
15 5 32 1
16 5 33 1
17 6 7 1
18 6 34 1
19 6 35 1
20 7 8 1
21 7 36 1
22 7 37 1
23 8 9 1
24 8 38 1
25 8 39 1
26 9 10 2
27 9 40 1
28 10 11 1
29 10 41 1
30 11 12 1
31 11 42 1
32 11 43 1
33 12 13 1
34 12 44 1
35 12 45 1
36 13 14 1
37 13 46 1
38 13 47 1
39 14 15 1
40 14 48 1
41 14 49 1
42 15 16 1
43 15 50 1
44 15 51 1
45 16 17 1
46 16 52 1
47 16 53 1
48 17 18 1
49 17 54 1
50 17 55 1
51 18 22 1
52 18 56 1
53 18 57 1
54 19 20 1
55 19 21 1
56 19 112 1
57 20 58 1
58 20 59 1
59 20 60 1
60 21 61 1
61 21 62 1
62 21 63 1
63 19 22 1
64 64 87 1
65 64 149 1
66 65 66 1
67 65 107 1
68 65 126 1
69 66 67 1
70 66 127 1
71 66 128 1
72 67 69 1
73 67 113 1
74 67 129 1
75 68 69 1
76 68 130 1
77 68 131 1
78 69 72 1
79 69 114 1
80 70 71 1
81 70 115 2
82 71 132 1
83 71 133 1
84 71 134 1
85 72 73 1
86 72 107 1
87 72 135 1
88 73 81 1
89 73 116 1
90 73 136 1
91 74 75 1
92 74 117 2
93 75 76 1
94 75 80 2
95 76 77 2
96 76 137 1
97 77 78 1
98 77 138 1
99 78 79 2
100 78 139 1
101 79 80 1
102 79 140 1
103 80 141 1
104 81 82 1
105 81 109 1
106 81 118 1
107 82 83 1
108 82 143 1
109 82 144 1
110 83 100 1
111 83 119 1
112 83 145 1
113 84 85 1
114 84 120 2
115 85 86 1
116 85 121 1
117 85 146 1
118 64 86 1
119 86 94 1
120 86 148 1
121 87 88 1
122 87 122 2
123 88 89 1
124 88 93 2
125 89 90 2
126 89 150 1
127 90 91 1
128 90 151 1
129 91 92 2
130 91 152 1
131 92 93 1
132 92 153 1
133 93 154 1
134 94 95 1
135 94 99 2
136 95 96 2
137 95 155 1
138 96 97 1
139 96 156 1
140 97 98 2
141 97 157 1
142 98 99 1
143 98 158 1
144 99 159 1
145 100 101 1
146 100 102 2
147 101 160 1
148 101 161 1
149 101 162 1
150 102 103 1
151 102 109 1
152 103 106 1
153 103 123 1
154 103 163 1
155 104 105 1
156 104 124 2
157 105 164 1
158 105 165 1
159 105 166 1
160 106 107 1
161 106 125 2
162 107 108 1
163 108 167 1
164 108 168 1
165 108 169 1
166 109 110 1
167 109 111 1
168 110 170 1
169 110 171 1
170 110 172 1
171 111 173 1
172 111 174 1
173 111 175 1
174 65 112 1
175 68 113 1
176 70 114 1
177 74 116 1
178 118 142 1
179 84 119 1
180 121 147 1
181 104 123 1
@<TRIPOS>SUBSTRUCTURE
1	PTL1	1	GROUP	1 ****	PTL
2	PTX1	64	GROUP	1 ****	PTX
