# created with PyMOL 2.5.4
@<TRIPOS>MOLECULE
PTX
133 140 2               
SMALL
USER_CHARGES
@<TRIPOS>ATOM
1	   C	-0.408	-0.562	4.412	C.3	1	PTL1	0.000	
2	   C	-0.527	0.563	2.293	C.3	1	PTL1	0.000	
3	   C	-1.651	1.070	1.381	C.3	1	PTL1	0.000	
4	   C	0.421	1.669	2.775	C.2	1	PTL1	0.000	
5	   C	0.033	2.957	2.855	C.2	1	PTL1	0.000	
6	   C	0.864	3.922	3.280	C.2	1	PTL1	0.000	
7	   C	2.116	3.619	3.651	C.2	1	PTL1	0.000	
8	   C	2.521	2.343	3.595	C.2	1	PTL1	0.000	
9	   C	1.682	1.390	3.161	C.2	1	PTL1	0.000	
10	   O	-1.218	-0.057	3.374	O.3	1	PTL1	0.000	
11	   H	-1.071	-1.105	5.122	 H	1	PTL1	0.000	
12	   H	0.342	-1.284	4.022	 H	1	PTL1	0.000	
13	   H	0.076	0.267	4.971	 H	1	PTL1	0.000	
14	   H	-1.285	1.689	0.532	 H	1	PTL1	0.000	
15	   H	-2.396	1.682	1.937	 H	1	PTL1	0.000	
16	   H	-2.235	0.224	0.953	 H	1	PTL1	0.000	
17	   H	-0.987	3.260	2.576	 H	1	PTL1	0.000	
18	   H	0.517	4.968	3.332	 H	1	PTL1	0.000	
19	   H	2.800	4.407	4.006	 H	1	PTL1	0.000	
20	   H	3.544	2.080	3.912	 H	1	PTL1	0.000	
21	   H	2.055	0.354	3.142	 H	1	PTL1	0.000	
22	   N	0.993	-0.657	-1.944	N.pl3	2	PTX1	0.000	
23	   C	0.820	-0.191	0.443	C.3	2	PTX1	0.000	
24	   C	2.309	-0.565	0.539	C.2	2	PTX1	0.000	
25	   C	4.463	0.386	-0.125	C.3	2	PTX1	0.000	
26	   C	5.109	1.449	0.783	C.3	2	PTX1	0.000	
27	   C	6.543	1.057	1.199	C.3	2	PTX1	0.000	
28	   C	7.465	1.218	-0.038	C.3	2	PTX1	0.000	
29	   C	7.014	3.128	-1.517	C.2	2	PTX1	0.000	
30	   C	7.162	4.466	-1.763	C.2	2	PTX1	0.000	
31	   C	6.686	5.044	-2.884	C.2	2	PTX1	0.000	
32	   C	6.845	6.360	-3.102	C.2	2	PTX1	0.000	
33	   C	7.483	7.123	-2.203	C.2	2	PTX1	0.000	
34	   C	7.960	6.562	-1.083	C.2	2	PTX1	0.000	
35	   C	7.799	5.247	-0.867	C.2	2	PTX1	0.000	
36	   C	8.894	0.623	0.041	C.3	2	PTX1	0.000	
37	   C	9.110	-0.752	-0.695	C.3	2	PTX1	0.000	
38	   C	8.338	-0.913	-2.025	C.3	2	PTX1	0.000	
39	   C	8.655	-1.893	0.272	C.2	2	PTX1	0.000	
40	   C	7.195	-2.402	0.424	C.3	2	PTX1	0.000	
41	   C	7.337	-4.534	-0.700	C.2	2	PTX1	0.000	
42	   C	6.871	-5.200	-1.980	C.3	2	PTX1	0.000	
43	   C	6.193	-1.270	0.639	C.2	2	PTX1	0.000	
44	   C	5.150	-0.976	-0.178	C.2	2	PTX1	0.000	
45	   C	4.656	-1.831	-1.328	C.3	2	PTX1	0.000	
46	   C	6.438	-0.353	1.843	C.3	2	PTX1	0.000	
47	   C	5.218	-0.512	2.804	C.3	2	PTX1	0.000	
48	   C	7.558	-0.730	2.855	C.3	2	PTX1	0.000	
49	   C	10.610	-0.988	-1.038	C.3	2	PTX1	0.000	
50	   C	11.597	-0.322	-0.084	C.3	2	PTX1	0.000	
51	   C	11.452	1.189	-0.055	C.3	2	PTX1	0.000	
52	   C	10.353	2.297	-1.348	C.3	2	PTX1	0.000	
53	   C	10.007	1.691	0.015	C.3	2	PTX1	0.000	
54	   C	10.556	3.708	1.306	C.2	2	PTX1	0.000	
55	   C	10.033	4.388	2.559	C.3	2	PTX1	0.000	
56	   C	0.159	-0.904	-0.758	C.3	2	PTX1	0.000	
57	   C	0.943	-1.270	-3.168	C.2	2	PTX1	0.000	
58	   C	-0.034	-2.130	-3.584	C.2	2	PTX1	0.000	
59	   C	0.267	-3.101	-4.471	C.2	2	PTX1	0.000	
60	   C	-0.656	-3.977	-4.898	C.2	2	PTX1	0.000	
61	   C	-1.918	-3.895	-4.455	C.2	2	PTX1	0.000	
62	   C	-2.245	-2.922	-3.594	C.2	2	PTX1	0.000	
63	   C	-1.314	-2.051	-3.173	C.2	2	PTX1	0.000	
64	   C	-0.028	-2.389	-0.491	C.2	2	PTX1	0.000	
65	   C	0.938	-3.292	-0.746	C.2	2	PTX1	0.000	
66	   C	0.752	-4.599	-0.509	C.2	2	PTX1	0.000	
67	   C	-0.413	-5.032	-0.006	C.2	2	PTX1	0.000	
68	   C	-1.386	-4.148	0.257	C.2	2	PTX1	0.000	
69	   C	-1.190	-2.842	0.016	C.2	2	PTX1	0.000	
70	   O	0.141	-0.511	1.642	O.3	2	PTX1	0.000	
71	   O	2.716	-1.593	1.031	O.co2	2	PTX1	0.000	
72	   O	3.056	0.421	-0.031	O.3	2	PTX1	0.000	
73	   O	6.992	1.976	2.159	O.3	2	PTX1	0.000	
74	   O	7.524	2.586	-0.359	O.3	2	PTX1	0.000	
75	   O	6.437	2.418	-2.318	O.co2	2	PTX1	0.000	
76	   O	9.485	-2.409	0.993	O.2	2	PTX1	0.000	
77	   O	6.871	-3.256	-0.660	O.3	2	PTX1	0.000	
78	   O	8.018	-5.065	0.146	O.co2	2	PTX1	0.000	
79	   O	10.910	-0.549	-2.346	O.3	2	PTX1	0.000	
80	   O	11.673	1.784	-1.313	O.3	2	PTX1	0.000	
81	   O	9.825	2.584	1.076	O.3	2	PTX1	0.000	
82	   O	11.476	4.131	0.645	O.co2	2	PTX1	0.000	
83	   O	1.951	-1.117	-3.820	O.2	2	PTX1	0.000	
84	   H	0.781	0.909	0.274	 H	2	PTX1	0.000	
85	   H	4.662	0.767	-1.162	 H	2	PTX1	0.000	
86	   H	5.083	2.447	0.289	 H	2	PTX1	0.000	
87	   H	4.487	1.638	1.684	 H	2	PTX1	0.000	
88	   H	7.088	2.838	1.742	 H	2	PTX1	0.000	
89	   H	6.964	0.697	-0.867	 H	2	PTX1	0.000	
90	   H	6.154	4.470	-3.660	 H	2	PTX1	0.000	
91	   H	6.450	6.818	-4.025	 H	2	PTX1	0.000	
92	   H	7.613	8.203	-2.382	 H	2	PTX1	0.000	
93	   H	8.485	7.183	-0.338	 H	2	PTX1	0.000	
94	   H	8.208	4.840	0.071	 H	2	PTX1	0.000	
95	   H	9.038	0.365	1.109	 H	2	PTX1	0.000	
96	   H	8.482	-0.045	-2.705	 H	2	PTX1	0.000	
97	   H	8.650	-1.835	-2.567	 H	2	PTX1	0.000	
98	   H	7.246	-1.012	-1.908	 H	2	PTX1	0.000	
99	   H	7.114	-3.014	1.353	 H	2	PTX1	0.000	
100	   H	7.252	-4.643	-2.866	 H	2	PTX1	0.000	
101	   H	7.247	-6.246	-2.041	 H	2	PTX1	0.000	
102	   H	5.759	-5.229	-2.020	 H	2	PTX1	0.000	
103	   H	5.346	-1.839	-2.198	 H	2	PTX1	0.000	
104	   H	4.438	-2.870	-0.998	 H	2	PTX1	0.000	
105	   H	3.691	-1.457	-1.729	 H	2	PTX1	0.000	
106	   H	5.276	0.187	3.669	 H	2	PTX1	0.000	
107	   H	4.227	-0.339	2.354	 H	2	PTX1	0.000	
108	   H	5.141	-1.547	3.209	 H	2	PTX1	0.000	
109	   H	7.593	-0.012	3.705	 H	2	PTX1	0.000	
110	   H	7.398	-1.736	3.304	 H	2	PTX1	0.000	
111	   H	8.599	-0.766	2.503	 H	2	PTX1	0.000	
112	   H	10.826	-2.084	-1.073	 H	2	PTX1	0.000	
113	   H	11.783	-0.150	-2.378	 H	2	PTX1	0.000	
114	   H	11.453	-0.703	0.952	 H	2	PTX1	0.000	
115	   H	12.642	-0.582	-0.374	 H	2	PTX1	0.000	
116	   H	12.144	1.642	0.690	 H	2	PTX1	0.000	
117	   H	10.352	3.403	-1.424	 H	2	PTX1	0.000	
118	   H	9.791	1.849	-2.194	 H	2	PTX1	0.000	
119	   H	8.941	4.589	2.472	 H	2	PTX1	0.000	
120	   H	10.211	3.741	3.448	 H	2	PTX1	0.000	
121	   H	10.549	5.359	2.728	 H	2	PTX1	0.000	
122	   H	-0.818	-0.391	-0.906	 H	2	PTX1	0.000	
123	   H	1.812	-0.059	-1.825	 H	2	PTX1	0.000	
124	   H	1.290	-3.233	-4.865	 H	2	PTX1	0.000	
125	   H	-0.379	-4.770	-5.613	 H	2	PTX1	0.000	
126	   H	-2.681	-4.610	-4.805	 H	2	PTX1	0.000	
127	   H	-3.288	-2.829	-3.245	 H	2	PTX1	0.000	
128	   H	-1.668	-1.250	-2.512	 H	2	PTX1	0.000	
129	   H	1.905	-2.972	-1.162	 H	2	PTX1	0.000	
130	   H	1.558	-5.320	-0.729	 H	2	PTX1	0.000	
131	   H	-0.570	-6.106	0.189	 H	2	PTX1	0.000	
132	   H	-2.348	-4.494	0.670	 H	2	PTX1	0.000	
133	   H	-2.006	-2.135	0.238	 H	2	PTX1	0.000	
@<TRIPOS>BOND
1 1 10 1
2 1 11 1
3 1 12 1
4 1 13 1
5 2 3 1
6 2 4 1
7 2 70 1
8 3 14 1
9 3 15 1
10 3 16 1
11 4 5 1
12 4 9 2
13 5 6 2
14 5 17 1
15 6 7 1
16 6 18 1
17 7 8 2
18 7 19 1
19 8 9 1
20 8 20 1
21 9 21 1
22 2 10 1
23 22 57 1
24 22 123 1
25 23 24 1
26 23 56 1
27 23 84 1
28 24 71 2
29 24 72 1
30 25 26 1
31 25 44 1
32 25 85 1
33 26 27 1
34 26 86 1
35 26 87 1
36 27 28 1
37 27 46 1
38 27 73 1
39 28 36 1
40 28 74 1
41 28 89 1
42 29 30 1
43 29 75 2
44 30 31 1
45 30 35 2
46 31 32 2
47 31 90 1
48 32 33 1
49 32 91 1
50 33 34 2
51 33 92 1
52 34 35 1
53 34 93 1
54 35 94 1
55 36 37 1
56 36 53 1
57 36 95 1
58 37 38 1
59 37 39 1
60 37 49 1
61 38 96 1
62 38 97 1
63 38 98 1
64 39 40 1
65 39 76 2
66 40 43 1
67 40 77 1
68 40 99 1
69 41 42 1
70 41 78 2
71 42 100 1
72 42 101 1
73 42 102 1
74 43 44 2
75 43 46 1
76 44 45 1
77 45 103 1
78 45 104 1
79 45 105 1
80 46 47 1
81 46 48 1
82 47 106 1
83 47 107 1
84 47 108 1
85 48 109 1
86 48 110 1
87 48 111 1
88 49 50 1
89 49 79 1
90 49 112 1
91 50 51 1
92 50 114 1
93 50 115 1
94 51 53 1
95 51 80 1
96 51 116 1
97 52 53 1
98 52 117 1
99 52 118 1
100 53 81 1
101 54 55 1
102 54 82 2
103 55 119 1
104 55 120 1
105 55 121 1
106 22 56 1
107 56 64 1
108 56 122 1
109 57 58 1
110 57 83 2
111 58 59 1
112 58 63 2
113 59 60 2
114 59 124 1
115 60 61 1
116 60 125 1
117 61 62 2
118 61 126 1
119 62 63 1
120 62 127 1
121 63 128 1
122 64 65 1
123 64 69 2
124 65 66 2
125 65 129 1
126 66 67 1
127 66 130 1
128 67 68 2
129 67 131 1
130 68 69 1
131 68 132 1
132 69 133 1
133 23 70 1
134 25 72 1
135 73 88 1
136 29 74 1
137 41 77 1
138 79 113 1
139 52 80 1
140 54 81 1
@<TRIPOS>SUBSTRUCTURE
1	PTL1	1	GROUP	1 ****	PTL
2	PTX1	22	GROUP	1 ****	PTX
