@<TRIPOS>MOLECULE
LST 
87 90 0 0 0
SMALL
USER_CHARGES
#CGenFF output mol2 file
@<TRIPOS>ATOM
1	C1     1.9710     1.6180     0.9560	C.3	1	LST1     0.3810
2	C2     2.4450     0.8780     2.2000	C.3	1	LST1    -0.2690
3	C3     2.4460     0.8780    -0.2880	C.3	1	LST1    -0.2690
4	C4     3.8930     2.7890     0.9560	C.3	1	LST1     0.0360
5	C5     4.5310     4.1720     0.9560	C.3	1	LST1    -0.1800
6	C6     6.0470     4.0330     0.9560	C.3	1	LST1    -0.1800
7	C7     6.6850     5.4160     0.9560	C.3	1	LST1    -0.1800
8	C8     8.2020     5.2760     0.9560	C.3	1	LST1    -0.1790
9	C9     8.8390     6.6590     0.9560	C.3	1	LST1    -0.1810
10	C10    10.3560     6.5200     0.9560	C.3	1	LST1    -0.1770
11	C11    10.9930     7.9030     0.9560	C.3	1	LST1    -0.2730
12	O1     2.4970     2.9170     0.9560	O.3	1	LST1    -0.4020
13	H1     3.5570     0.8280     2.2010	H	1	LST1     0.0900
14	H2     2.0280    -0.1530     2.2000	H	1	LST1     0.0900
15	H3     2.0980     1.4200     3.1080	H	1	LST1     0.0900
16	H4     1.5650     0.5670    -0.8940	H	1	LST1     0.0900
17	H5     3.0940     1.5500    -0.8940	H	1	LST1     0.0900
18	H6     3.0240    -0.0230     0.0150	H	1	LST1     0.0900
19	H7     4.2140     2.2330     1.8650	H	1	LST1     0.0900
20	H8     4.2140     2.2320     0.0470	H	1	LST1     0.0900
21	H9     4.2100     4.7280     0.0470	H	1	LST1     0.0900
22	H10     4.2100     4.7280     1.8650	H	1	LST1     0.0900
23	H11     6.3680     3.4770     1.8650	H	1	LST1     0.0900
24	H12     6.3690     3.4760     0.0470	H	1	LST1     0.0900
25	H13     6.3640     5.9720     0.0470	H	1	LST1     0.0900
26	H14     6.3640     5.9720     1.8650	H	1	LST1     0.0900
27	H15     8.5230     4.7200     1.8650	H	1	LST1     0.0900
28	H16     8.5230     4.7200     0.0470	H	1	LST1     0.0900
29	H17     8.5180     7.2150     0.0470	H	1	LST1     0.0900
30	H18     8.5180     7.2160     1.8650	H	1	LST1     0.0900
31	H19    10.6770     5.9640     1.8650	H	1	LST1     0.0900
32	H20    10.6770     5.9640     0.0470	H	1	LST1     0.0900
33	H21    12.1020     7.8010     0.9560	H	1	LST1     0.0900
34	H22    10.6720     8.4590     0.0470	H	1	LST1     0.0900
35	H23    10.6720     8.4600     1.8650	H	1	LST1     0.0900
36	N1    -3.5430     1.0430     0.9560	N.2	1	LST1    -0.8510
37	N2    -2.2210    -0.7340     0.9560	N.pl3	1	LST1    -0.1030
38	N3    -3.2460    -7.8620    -2.1790	N.2	1	LST1    -0.6640
39	N4    -2.6600    -8.3520    -0.8880	N.2	1	LST1     0.4690
40	N5    -3.3260    -7.4520     0.1120	N.2	1	LST1    -0.2940
41	N6    -4.1470    -6.6010    -0.5210	N.2	1	LST1    -0.5200
42	C12    -3.5060    -0.2700     0.9560	C.2	1	LST1     0.4110
43	C13    -2.2310     1.4420     0.9560	C.2	1	LST1     0.3870
44	C14    -1.3910     0.3530     0.9560	C.2	1	LST1    -0.2920
45	C15     0.1050     0.3570     0.9560	C.3	1	LST1     0.2350
46	C16    -1.8060    -2.1440     0.9560	C.3	1	LST1     0.1050
47	C17    -3.8190    -4.2280    -2.2030	C.2	1	LST1    -0.0000
48	C18    -4.0540    -2.8680    -2.0050	C.2	1	LST1    -0.1070
49	C19    -3.3990    -2.1890    -0.9770	C.2	1	LST1    -0.1170
50	C20    -2.5090    -2.8720    -0.1470	C.2	1	LST1    -0.0040
51	C21    -2.2740    -4.2320    -0.3460	C.2	1	LST1    -0.1170
52	C22    -2.9290    -4.9100    -1.3740	C.2	1	LST1    -0.1070
53	C23    -4.4470    -4.8780    -3.1890	C.2	1	LST1     0.0050
54	C24    -4.7920    -6.1900    -2.8660	C.2	1	LST1     0.0650
55	C25    -5.8630    -6.8080    -3.5120	C.2	1	LST1    -0.1190
56	C26    -6.5880    -6.1140    -4.4810	C.2	1	LST1    -0.1170
57	C27    -6.2420    -4.8020    -4.8030	C.2	1	LST1    -0.1150
58	C28    -5.1720    -4.1840    -4.1580	C.2	1	LST1    -0.1220
59	C29    -4.0980    -6.8550    -1.9370	C.2	1	LST1     0.6570
60	C30    -4.7190    -1.1470     0.9560	C.3	1	LST1    -0.1050
61	C31    -5.9720    -0.2820     0.9560	C.3	1	LST1    -0.1840
62	C32    -7.2060    -1.1740     0.9560	C.3	1	LST1    -0.1730
63	C33    -8.4590    -0.3090     0.9560	C.3	1	LST1    -0.2730
64	O2     0.5700     1.6800     0.9560	O.3	1	LST1    -0.4240
65	Cl    -1.7080     3.0790     0.9560	Cl	1	LST1    -0.1580
66	H24     0.4770    -0.1660     0.0470	H	1	LST1     0.0900
67	H25     0.4780    -0.1670     1.8650	H	1	LST1     0.0900
68	H26    -2.0700    -2.6080     1.9330	H	1	LST1     0.0900
69	H27    -0.7060    -2.2070     0.7990	H	1	LST1     0.0900
70	H28    -4.7560    -2.3290    -2.6590	H	1	LST1     0.1150
71	H29    -3.5840    -1.1170    -0.8200	H	1	LST1     0.1150
72	H30    -1.5720    -4.7700     0.3080	H	1	LST1     0.1150
73	H31    -2.7430    -5.9830    -1.5310	H	1	LST1     0.1150
74	H32    -6.1350    -7.8430    -3.2570	H	1	LST1     0.1150
75	H33    -7.4320    -6.6020    -4.9900	H	1	LST1     0.1150
76	H34    -6.8140    -4.2550    -5.5670	H	1	LST1     0.1150
77	H35    -4.8990    -3.1490    -4.4120	H	1	LST1     0.1150
78	H36    -1.9860    -9.1010    -0.7300	H	1	LST1     0.2950
79	H37    -4.7120    -1.7890     1.8650	H	1	LST1     0.0900
80	H38    -4.7120    -1.7900     0.0470	H	1	LST1     0.0900
81	H39    -5.9790     0.3600     0.0470	H	1	LST1     0.0900
82	H40    -5.9790     0.3610     1.8650	H	1	LST1     0.0900
83	H41    -7.1990    -1.8160     1.8650	H	1	LST1     0.0900
84	H42    -7.1990    -1.8170     0.0470	H	1	LST1     0.0900
85	H43    -9.3610    -0.9610     0.9560	H	1	LST1     0.0900
86	H44    -8.4660     0.3330     0.0470	H	1	LST1     0.0900
87	H45    -8.4660     0.3340     1.8650	H	1	LST1     0.0900
@<TRIPOS>BOND
1	1	2	1
2	1	3	1
3	1	12	1
4	2	13	1
5	2	14	1
6	2	15	1
7	3	16	1
8	3	17	1
9	3	18	1
10	4	5	1
11	4	19	1
12	4	20	1
13	5	6	1
14	5	21	1
15	5	22	1
16	6	7	1
17	6	23	1
18	6	24	1
19	7	8	1
20	7	25	1
21	7	26	1
22	8	9	1
23	8	27	1
24	8	28	1
25	9	10	1
26	9	29	1
27	9	30	1
28	10	11	1
29	10	31	1
30	10	32	1
31	11	33	1
32	11	34	1
33	11	35	1
34	4	12	1
35	36	43	1
36	37	46	1
37	38	39	1
38	38	59	2
39	39	40	1
40	39	78	1
41	40	41	2
42	41	59	1
43	36	42	2
44	37	42	1
45	42	60	1
46	43	44	2
47	43	65	1
48	37	44	1
49	44	45	1
50	45	64	1
51	45	66	1
52	45	67	1
53	46	50	1
54	46	68	1
55	46	69	1
56	47	48	2
57	47	52	1
58	47	53	1
59	48	49	1
60	48	70	1
61	49	50	2
62	49	71	1
63	50	51	1
64	51	52	2
65	51	72	1
66	52	73	1
67	53	54	2
68	53	58	1
69	54	55	1
70	54	59	1
71	55	56	2
72	55	74	1
73	56	57	1
74	56	75	1
75	57	58	2
76	57	76	1
77	58	77	1
78	60	61	1
79	60	79	1
80	60	80	1
81	61	62	1
82	61	81	1
83	61	82	1
84	62	63	1
85	62	83	1
86	62	84	1
87	63	85	1
88	63	86	1
89	63	87	1
90	1	64	1
