# created with PyMOL 2.5.4
@<TRIPOS>MOLECULE
LST
87 90 2                 
SMALL
USER_CHARGES
@<TRIPOS>ATOM
1	   C	1.971	1.618	0.956	C.3	1	LSL1	0.165	
2	   C	2.445	0.878	2.200	C.3	1	LSL1	-0.011	
3	   C	2.446	0.878	-0.288	C.3	1	LSL1	-0.011	
4	   C	3.893	2.789	0.956	C.3	1	LSL1	0.051	
5	   C	4.531	4.172	0.956	C.3	1	LSL1	-0.029	
6	   C	6.047	4.033	0.956	C.3	1	LSL1	-0.051	
7	   C	6.685	5.416	0.956	C.3	1	LSL1	-0.053	
8	   C	8.202	5.276	0.956	C.3	1	LSL1	-0.053	
9	   C	8.839	6.659	0.956	C.3	1	LSL1	-0.053	
10	   C	10.356	6.520	0.956	C.3	1	LSL1	-0.056	
11	   C	10.993	7.903	0.956	C.3	1	LSL1	-0.065	
12	   O	2.497	2.917	0.956	O.3	1	LSL1	-0.349	
13	   H	3.557	0.828	2.201	 H	1	LSL1	0.028	
14	   H	2.028	-0.153	2.200	 H	1	LSL1	0.028	
15	   H	2.098	1.420	3.108	 H	1	LSL1	0.028	
16	   H	1.565	0.567	-0.894	 H	1	LSL1	0.028	
17	   H	3.094	1.550	-0.894	 H	1	LSL1	0.028	
18	   H	3.024	-0.023	0.015	 H	1	LSL1	0.028	
19	   H	4.214	2.233	1.865	 H	1	LSL1	0.056	
20	   H	4.214	2.232	0.047	 H	1	LSL1	0.056	
21	   H	4.210	4.728	0.047	 H	1	LSL1	0.029	
22	   H	4.210	4.728	1.865	 H	1	LSL1	0.029	
23	   H	6.368	3.477	1.865	 H	1	LSL1	0.027	
24	   H	6.369	3.476	0.047	 H	1	LSL1	0.027	
25	   H	6.364	5.972	0.047	 H	1	LSL1	0.026	
26	   H	6.364	5.972	1.865	 H	1	LSL1	0.026	
27	   H	8.523	4.720	1.865	 H	1	LSL1	0.026	
28	   H	8.523	4.720	0.047	 H	1	LSL1	0.026	
29	   H	8.518	7.215	0.047	 H	1	LSL1	0.026	
30	   H	8.518	7.216	1.865	 H	1	LSL1	0.026	
31	   H	10.677	5.964	1.865	 H	1	LSL1	0.026	
32	   H	10.677	5.964	0.047	 H	1	LSL1	0.026	
33	   H	12.102	7.801	0.956	 H	1	LSL1	0.023	
34	   H	10.672	8.459	0.047	 H	1	LSL1	0.023	
35	   H	10.672	8.460	1.865	 H	1	LSL1	0.023	
36	   N	-3.543	1.043	0.956	N.2	2	LST1	-0.221	
37	   N	-2.221	-0.734	0.956	N.pl3	2	LST1	-0.324	
38	   N	-3.246	-7.862	-2.179	N.2	2	LST1	-0.133	
39	   N	-2.660	-8.352	-0.888	N.2	2	LST1	-0.176	
40	   N	-3.326	-7.452	0.112	N.2	2	LST1	-0.049	
41	   N	-4.147	-6.601	-0.521	N.2	2	LST1	-0.108	
42	   C	-3.506	-0.270	0.956	C.2	2	LST1	0.112	
43	   C	-2.231	1.442	0.956	C.2	2	LST1	0.153	
44	   C	-1.391	0.353	0.956	C.2	2	LST1	0.083	
45	   C	0.105	0.357	0.956	C.3	2	LST1	0.094	
46	   C	-1.806	-2.144	0.956	C.3	2	LST1	0.050	
47	   C	-3.819	-4.228	-2.203	C.2	2	LST1	-0.017	
48	   C	-4.054	-2.868	-2.005	C.2	2	LST1	-0.054	
49	   C	-3.399	-2.189	-0.977	C.2	2	LST1	-0.056	
50	   C	-2.509	-2.872	-0.147	C.2	2	LST1	-0.028	
51	   C	-2.274	-4.232	-0.346	C.2	2	LST1	-0.056	
52	   C	-2.929	-4.910	-1.374	C.2	2	LST1	-0.054	
53	   C	-4.447	-4.878	-3.189	C.2	2	LST1	-0.007	
54	   C	-4.792	-6.190	-2.866	C.2	2	LST1	0.030	
55	   C	-5.863	-6.808	-3.512	C.2	2	LST1	-0.050	
56	   C	-6.588	-6.114	-4.481	C.2	2	LST1	-0.061	
57	   C	-6.242	-4.802	-4.803	C.2	2	LST1	-0.061	
58	   C	-5.172	-4.184	-4.158	C.2	2	LST1	-0.053	
59	   C	-4.098	-6.855	-1.937	C.2	2	LST1	0.205	
60	   C	-4.719	-1.147	0.956	C.3	2	LST1	0.006	
61	   C	-5.972	-0.282	0.956	C.3	2	LST1	-0.047	
62	   C	-7.206	-1.174	0.956	C.3	2	LST1	-0.056	
63	   C	-8.459	-0.309	0.956	C.3	2	LST1	-0.065	
64	   O	0.570	1.680	0.956	O.3	2	LST1	-0.343	
65	  Cl	-1.708	3.079	0.956	Cl	2	LST1	-0.060	
66	   H	0.477	-0.166	0.047	 H	2	LST1	0.063	
67	   H	0.478	-0.167	1.865	 H	2	LST1	0.063	
68	   H	-2.070	-2.608	1.933	 H	2	LST1	0.054	
69	   H	-0.706	-2.207	0.799	 H	2	LST1	0.054	
70	   H	-4.756	-2.329	-2.659	 H	2	LST1	0.062	
71	   H	-3.584	-1.117	-0.820	 H	2	LST1	0.062	
72	   H	-1.572	-4.770	0.308	 H	2	LST1	0.062	
73	   H	-2.743	-5.983	-1.531	 H	2	LST1	0.062	
74	   H	-6.135	-7.843	-3.257	 H	2	LST1	0.062	
75	   H	-7.432	-6.602	-4.990	 H	2	LST1	0.062	
76	   H	-6.814	-4.255	-5.567	 H	2	LST1	0.062	
77	   H	-4.899	-3.149	-4.412	 H	2	LST1	0.062	
78	   H	-1.986	-9.101	-0.730	 H	2	LST1	0.214	
79	   H	-4.712	-1.789	1.865	 H	2	LST1	0.034	
80	   H	-4.712	-1.790	0.047	 H	2	LST1	0.034	
81	   H	-5.979	0.360	0.047	 H	2	LST1	0.027	
82	   H	-5.979	0.361	1.865	 H	2	LST1	0.027	
83	   H	-7.199	-1.816	1.865	 H	2	LST1	0.026	
84	   H	-7.199	-1.817	0.047	 H	2	LST1	0.026	
85	   H	-9.361	-0.961	0.956	 H	2	LST1	0.023	
86	   H	-8.466	0.333	0.047	 H	2	LST1	0.023	
87	   H	-8.466	0.334	1.865	 H	2	LST1	0.023	
@<TRIPOS>BOND
1 1 2 1
2 1 3 1
3 1 12 1
4 2 13 1
5 2 14 1
6 2 15 1
7 3 16 1
8 3 17 1
9 3 18 1
10 4 5 1
11 4 19 1
12 4 20 1
13 5 6 1
14 5 21 1
15 5 22 1
16 6 7 1
17 6 23 1
18 6 24 1
19 7 8 1
20 7 25 1
21 7 26 1
22 8 9 1
23 8 27 1
24 8 28 1
25 9 10 1
26 9 29 1
27 9 30 1
28 10 11 1
29 10 31 1
30 10 32 1
31 11 33 1
32 11 34 1
33 11 35 1
34 4 12 1
35 36 43 ar
36 37 46 1
37 38 39 ar
38 38 59 ar
39 39 40 ar
40 39 78 1
41 40 41 ar
42 41 59 ar
43 36 42 ar
44 37 42 ar
45 42 60 1
46 43 44 ar
47 43 65 1
48 37 44 ar
49 44 45 1
50 45 64 1
51 45 66 1
52 45 67 1
53 46 50 1
54 46 68 1
55 46 69 1
56 47 48 ar
57 47 52 ar
58 47 53 1
59 48 49 ar
60 48 70 1
61 49 50 ar
62 49 71 1
63 50 51 ar
64 51 52 ar
65 51 72 1
66 52 73 1
67 53 54 ar
68 53 58 ar
69 54 55 ar
70 54 59 1
71 55 56 ar
72 55 74 1
73 56 57 ar
74 56 75 1
75 57 58 ar
76 57 76 1
77 58 77 1
78 60 61 1
79 60 79 1
80 60 80 1
81 61 62 1
82 61 81 1
83 61 82 1
84 62 63 1
85 62 83 1
86 62 84 1
87 63 85 1
88 63 86 1
89 63 87 1
90 1 64 1
@<TRIPOS>SUBSTRUCTURE
1	LSL1	1	GROUP	1 ****	LSL
2	LST1	36	GROUP	1 ****	LST
