@<TRIPOS>MOLECULE
CA4 
107 108 0 0 0
SMALL
USER_CHARGES
#CGenFF output mol2 file
@<TRIPOS>ATOM
1	C1     5.8740     2.3070    -1.0440	C.2	1	CAL1     0.2360
2	C2     6.4260     1.6810    -2.1040	C.2	1	CAL1    -0.1180
3	C3     5.9510     1.7660    -3.3610	C.2	1	CAL1    -0.0320
4	C4     6.5170     1.1830    -4.4400	C.2	1	CAL1    -0.0930
5	C5     7.4430     0.2120    -4.5530	C.2	1	CAL1    -0.0930
6	C6     7.7580    -0.8120    -3.7320	C.2	1	CAL1    -0.0310
7	C7     8.8620    -1.5460    -3.9550	C.2	1	CAL1    -0.1190
8	C8     9.2100    -2.6010    -3.1940	C.2	1	CAL1     0.2210
9	C9    10.2750    -4.3910    -4.2380	C.3	1	CAL1    -0.1010
10	C10     8.4600    -2.8960    -2.1080	C.2	1	CAL1     0.2180
11	C11     9.5510    -3.5730    -0.1640	C.3	1	CAL1    -0.1010
12	C12     7.2660    -2.2850    -1.9470	C.2	1	CAL1     0.2210
13	C13     5.4370    -3.5470    -1.2400	C.3	1	CAL1    -0.1010
14	C14     6.9670    -1.2360    -2.7350	C.2	1	CAL1    -0.1190
15	C15     4.9050     2.5940    -3.5330	C.2	1	CAL1    -0.1170
16	C16     4.3660     3.2610    -2.5030	C.2	1	CAL1    -0.1160
17	C17     4.8570     3.1750    -1.2530	C.2	1	CAL1     0.2210
18	C18     2.9780     4.2410    -0.2270	C.3	1	CAL1    -0.1010
19	O1     6.4630     2.2140     0.1930	O.3	1	CAL1    -0.4260
20	O2    10.4000    -3.2460    -3.4250	O.3	1	CAL1    -0.3890
21	O3     8.8040    -3.9520    -1.2980	O.3	1	CAL1    -0.3890
22	O4     6.4370    -2.6150    -0.9030	O.3	1	CAL1    -0.3890
23	O5     4.3330     3.8560    -0.1780	O.3	1	CAL1    -0.3890
24	H1     7.3460     1.1100    -1.9010	H	1	CAL1     0.1150
25	H2     6.2530     1.6510    -5.4100	H	1	CAL1     0.1320
26	H3     7.9640     0.2010    -5.5310	H	1	CAL1     0.1320
27	H4     9.5420    -1.2780    -4.7820	H	1	CAL1     0.1150
28	H5    11.2850    -4.8400    -4.3640	H	1	CAL1     0.0900
29	H6     9.6040    -5.1350    -3.7540	H	1	CAL1     0.0900
30	H7     9.8760    -4.1050    -5.2370	H	1	CAL1     0.0900
31	H8     9.7760    -4.4900     0.4250	H	1	CAL1     0.0900
32	H9    10.5060    -3.0980    -0.4790	H	1	CAL1     0.0900
33	H10     8.9610    -2.8710     0.4660	H	1	CAL1     0.0900
34	H11     4.8310    -3.7500    -0.3290	H	1	CAL1     0.0900
35	H12     4.7740    -3.1250    -2.0290	H	1	CAL1     0.0900
36	H13     5.9020    -4.4960    -1.5910	H	1	CAL1     0.0900
37	H14     5.9960    -0.7520    -2.5610	H	1	CAL1     0.1150
38	H15     4.4640     2.7510    -4.5330	H	1	CAL1     0.1150
39	H16     3.5130     3.9220    -2.7280	H	1	CAL1     0.1150
40	H17     2.6910     4.5990     0.7870	H	1	CAL1     0.0900
41	H18     2.8340     5.0830    -0.9390	H	1	CAL1     0.0900
42	H19     2.3390     3.3670    -0.4850	H	1	CAL1     0.0900
43	C19   -17.2260     0.0420     2.4730	C.3	1	CAL1    -0.2730
44	C20   -15.8560     0.1570     3.1560	C.3	1	CAL1    -0.1770
45	C21   -14.7050     0.1110     2.1400	C.3	1	CAL1    -0.1810
46	C22   -13.3300     0.2220     2.8200	C.3	1	CAL1    -0.1790
47	C23   -12.1800     0.1750     1.8020	C.3	1	CAL1    -0.1800
48	C24   -10.8040     0.2770     2.4800	C.3	1	CAL1    -0.1800
49	C25    -9.6560     0.2240     1.4590	C.3	1	CAL1    -0.1800
50	C26    -8.2770     0.3120     2.1320	C.3	1	CAL1    -0.1800
51	C27    -7.1350     0.2490     1.1060	C.3	1	CAL1    -0.1800
52	C28    -5.7510     0.3160     1.7730	C.3	1	CAL1    -0.1800
53	C29    -4.6160     0.2380     0.7390	C.3	1	CAL1    -0.1800
54	C30    -3.2270     0.2790     1.3970	C.3	1	CAL1    -0.1800
55	C31    -2.1010     0.1830     0.3550	C.3	1	CAL1    -0.1800
56	C32    -0.7060     0.1940     1.0020	C.3	1	CAL1    -0.1800
57	C33     0.4080     0.0790    -0.0510	C.3	1	CAL1    -0.1800
58	C34     1.8080     0.0620     0.5850	C.3	1	CAL1    -0.1800
59	C35     2.9080    -0.0600    -0.4820	C.3	1	CAL1    -0.1800
60	C36     4.3150    -0.1120     0.1130	C.3	1	CAL1     0.0360
61	C37     5.8870     1.3620     1.1630	C.3	1	CAL1     0.3830
62	C38     5.8540     2.1550     2.4720	C.3	1	CAL1    -0.2740
63	C39     6.7870     0.1450     1.3660	C.3	1	CAL1    -0.2740
64	O6     4.5440     1.0490     0.8670	O.3	1	CAL1    -0.4030
65	H20   -18.0500     0.0780     3.2210	H	1	CAL1     0.0900
66	H21   -17.3860     0.8760     1.7520	H	1	CAL1     0.0900
67	H22   -17.3160    -0.9170     1.9140	H	1	CAL1     0.0900
68	H23   -15.7410    -0.6760     3.8900	H	1	CAL1     0.0900
69	H24   -15.8110     1.1140     3.7300	H	1	CAL1     0.0900
70	H25   -14.8240     0.9450     1.4080	H	1	CAL1     0.0900
71	H26   -14.7570    -0.8450     1.5670	H	1	CAL1     0.0900
72	H27   -13.2120    -0.6120     3.5520	H	1	CAL1     0.0900
73	H28   -13.2780     1.1790     3.3940	H	1	CAL1     0.0900
74	H29   -12.2960     1.0120     1.0730	H	1	CAL1     0.0900
75	H30   -12.2370    -0.7800     1.2260	H	1	CAL1     0.0900
76	H31   -10.6890    -0.5590     3.2100	H	1	CAL1     0.0900
77	H32   -10.7440     1.2320     3.0550	H	1	CAL1     0.0900
78	H33    -9.7680     1.0650     0.7330	H	1	CAL1     0.0900
79	H34    -9.7240    -0.7270     0.8790	H	1	CAL1     0.0900
80	H35    -8.1670    -0.5280     2.8590	H	1	CAL1     0.0900
81	H36    -8.2060     1.2650     2.7090	H	1	CAL1     0.0900
82	H37    -7.2390     1.0940     0.3840	H	1	CAL1     0.0900
83	H38    -7.2160    -0.6990     0.5230	H	1	CAL1     0.0900
84	H39    -5.6500    -0.5270     2.4970	H	1	CAL1     0.0900
85	H40    -5.6630     1.2660     2.3510	H	1	CAL1     0.0900
86	H41    -4.7100     1.0880     0.0220	H	1	CAL1     0.0900
87	H42    -4.7170    -0.7060     0.1530	H	1	CAL1     0.0900
88	H43    -3.1350    -0.5680     2.1180	H	1	CAL1     0.0900
89	H44    -3.1170     1.2260     1.9770	H	1	CAL1     0.0900
90	H45    -2.1840     1.0370    -0.3590	H	1	CAL1     0.0900
91	H46    -2.2240    -0.7570    -0.2340	H	1	CAL1     0.0900
92	H47    -0.6250    -0.6550     1.7200	H	1	CAL1     0.0900
93	H48    -0.5730     1.1380     1.5830	H	1	CAL1     0.0900
94	H49     0.3350     0.9380    -0.7610	H	1	CAL1     0.0900
95	H50     0.2620    -0.8560    -0.6410	H	1	CAL1     0.0900
96	H51     1.8860    -0.7940     1.2950	H	1	CAL1     0.0900
97	H52     1.9540     1.0000     1.1710	H	1	CAL1     0.0900
98	H53     2.8380     0.8040    -1.1860	H	1	CAL1     0.0900
99	H54     2.7390    -0.9850    -1.0840	H	1	CAL1     0.0900
100	H55     4.4200    -1.0080     0.7670	H	1	CAL1     0.0900
101	H56     5.0410    -0.1730    -0.7230	H	1	CAL1     0.0900
102	H57     6.8690     2.5120     2.7630	H	1	CAL1     0.0900
103	H58     5.4620     1.5350     3.3100	H	1	CAL1     0.0900
104	H59     5.1990     3.0530     2.3880	H	1	CAL1     0.0900
105	H60     6.3590    -0.5700     2.1040	H	1	CAL1     0.0900
106	H61     6.9940    -0.4000     0.4190	H	1	CAL1     0.0900
107	H62     7.7850     0.4520     1.7530	H	1	CAL1     0.0900
@<TRIPOS>BOND
1	1	2	1
2	1	17	2
3	2	3	2
4	2	24	1
5	3	4	1
6	3	15	1
7	4	5	2
8	4	25	1
9	5	6	1
10	5	26	1
11	6	7	2
12	6	14	1
13	7	8	1
14	7	27	1
15	8	10	2
16	8	20	1
17	9	28	1
18	9	29	1
19	9	30	1
20	10	12	1
21	10	21	1
22	11	31	1
23	11	32	1
24	11	33	1
25	12	14	2
26	12	22	1
27	13	34	1
28	13	35	1
29	13	36	1
30	14	37	1
31	15	16	2
32	15	38	1
33	16	17	1
34	16	39	1
35	17	23	1
36	18	40	1
37	18	41	1
38	18	42	1
39	1	19	1
40	9	20	1
41	11	21	1
42	13	22	1
43	18	23	1
44	43	44	1
45	43	65	1
46	43	66	1
47	43	67	1
48	44	45	1
49	44	68	1
50	44	69	1
51	45	46	1
52	45	70	1
53	45	71	1
54	46	47	1
55	46	72	1
56	46	73	1
57	47	48	1
58	47	74	1
59	47	75	1
60	48	49	1
61	48	76	1
62	48	77	1
63	49	50	1
64	49	78	1
65	49	79	1
66	50	51	1
67	50	80	1
68	50	81	1
69	51	52	1
70	51	82	1
71	51	83	1
72	52	53	1
73	52	84	1
74	52	85	1
75	53	54	1
76	53	86	1
77	53	87	1
78	54	55	1
79	54	88	1
80	54	89	1
81	55	56	1
82	55	90	1
83	55	91	1
84	56	57	1
85	56	92	1
86	56	93	1
87	57	58	1
88	57	94	1
89	57	95	1
90	58	59	1
91	58	96	1
92	58	97	1
93	59	60	1
94	59	98	1
95	59	99	1
96	60	64	1
97	60	100	1
98	60	101	1
99	19	61	1
100	61	62	1
101	61	63	1
102	62	102	1
103	62	103	1
104	62	104	1
105	63	105	1
106	63	106	1
107	63	107	1
108	61	64	1
