@<TRIPOS>MOLECULE
PTX 
126 132 0 0 0
SMALL
USER_CHARGES
#CGenFF output mol2 file
@<TRIPOS>ATOM
1	C1    -0.3070    -1.7350     4.2410	C.3	1	PTX1    -0.0600
2	C2     0.2150     0.2750     3.0290	C.3	1	PTX1     0.0190
3	C3    -0.3950     1.6660     2.8370	C.3	1	PTX1    -0.2590
4	C4     1.6350     0.3400     3.5660	C.3	1	PTX1     0.0640
5	O1    -0.6690    -0.4130     3.8990	O.3	1	PTX1    -0.3440
6	Br     1.8130     1.1540     5.3250	Br	1	PTX1    -0.1510
7	H1    -1.1440    -2.1660     4.8350	H	1	PTX1     0.0900
8	H2    -0.1670    -2.3680     3.3390	H	1	PTX1     0.0900
9	H3     0.5990    -1.7490     4.8830	H	1	PTX1     0.0900
10	H4     0.2960     2.3750     2.3300	H	1	PTX1     0.0900
11	H5    -0.6560     2.1350     3.8120	H	1	PTX1     0.0900
12	H6    -1.3380     1.6180     2.2460	H	1	PTX1     0.0900
13	H7     2.1100    -0.6630     3.6010	H	1	PTX1     0.1400
14	H8     2.2540     0.9690     2.8900	H	1	PTX1     0.1400
15	N     0.8910    -0.2400    -1.7450	N.pl3	1	PTX1    -0.4040
16	C5     0.8090    -0.0140     0.6900	C.3	1	PTX1     0.2130
17	C6     2.2970    -0.3970     0.6840	C.2	1	PTX1     0.8500
18	C7     4.4270     0.6170     0.0390	C.3	1	PTX1     0.2720
19	C8     5.0990     1.5960     1.0210	C.3	1	PTX1    -0.2120
20	C9     6.5490     1.1760     1.3470	C.3	1	PTX1     0.1860
21	C10     7.4270     1.4500     0.0980	C.3	1	PTX1     0.1330
22	C11     6.9320     3.4780    -1.1980	C.2	1	PTX1     0.4590
23	C12     7.1040     4.8270    -1.3540	C.2	1	PTX1     0.0860
24	C13     6.6020     5.4940    -2.4120	C.2	1	PTX1    -0.1100
25	C14     6.7860     6.8180    -2.5440	C.2	1	PTX1    -0.1140
26	C15     7.4750     7.5010    -1.6180	C.2	1	PTX1    -0.1150
27	C16     7.9780     6.8510    -0.5590	C.2	1	PTX1    -0.1140
28	C17     7.7910     5.5280    -0.4300	C.2	1	PTX1    -0.1100
29	C18     8.8600     0.8550     0.0760	C.3	1	PTX1    -0.0740
30	C19     9.0520    -0.4480    -0.7850	C.3	1	PTX1     0.0810
31	C20     8.2370    -0.4930    -2.0990	C.3	1	PTX1    -0.2630
32	C21     8.6320    -1.6720     0.0910	C.2	1	PTX1     0.2970
33	C22     7.1780    -2.1990     0.2450	C.3	1	PTX1     0.4320
34	C23     7.2800    -4.2230    -1.0660	C.2	1	PTX1     0.8340
35	C24     6.7790    -4.7720    -2.3870	C.3	1	PTX1    -0.3110
36	C25     6.1830    -1.0930     0.5950	C.2	1	PTX1    -0.1130
37	C26     5.1130    -0.7320    -0.1580	C.2	1	PTX1    -0.1530
38	C27     4.5810    -1.4850    -1.3620	C.3	1	PTX1    -0.2650
39	C28     6.4690    -0.2860     1.8660	C.3	1	PTX1     0.0160
40	C29     5.2840    -0.5340     2.8510	C.3	1	PTX1    -0.2690
41	C30     7.6230    -0.7480     2.8030	C.3	1	PTX1    -0.2690
42	C31    10.5400    -0.6460    -1.1980	C.3	1	PTX1     0.1660
43	C32    11.5570    -0.0650    -0.2210	C.3	1	PTX1    -0.2010
44	C33    11.4120     1.4360    -0.0510	C.3	1	PTX1     0.0150
45	C34    10.2730     2.6520    -1.2040	C.3	1	PTX1    -0.1060
46	C35     9.9710     1.9260     0.1100	C.3	1	PTX1     0.3660
47	C36    10.5610     3.8200     1.5590	C.2	1	PTX1     0.8850
48	C37    10.0770     4.3850     2.8820	C.3	1	PTX1    -0.3130
49	C38     0.1030    -0.5960    -0.5570	C.3	1	PTX1     0.1270
50	C39     0.7960    -0.7410    -3.0170	C.2	1	PTX1     0.3410
51	C40    -0.1960    -1.5620    -3.4730	C.2	1	PTX1    -0.1370
52	C41     0.0710    -2.4450    -4.4580	C.2	1	PTX1    -0.0240
53	C42    -0.8690    -3.2810    -4.9280	C.2	1	PTX1    -0.1090
54	C43    -2.1130    -3.2460    -4.4300	C.2	1	PTX1    -0.1150
55	C44    -2.4050    -2.3590    -3.4700	C.2	1	PTX1    -0.1090
56	C45    -1.4590    -1.5270    -3.0060	C.2	1	PTX1    -0.0240
57	C46    -0.0820    -2.1000    -0.4160	C.2	1	PTX1    -0.0400
58	C47     0.8630    -2.9790    -0.7960	C.2	1	PTX1    -0.1060
59	C48     0.6800    -4.3020    -0.6620	C.2	1	PTX1    -0.1150
60	C49    -0.4610    -4.7720    -0.1370	C.2	1	PTX1    -0.1150
61	C50    -1.4120    -3.9100     0.2520	C.2	1	PTX1    -0.1150
62	C51    -1.2190    -2.5900     0.1130	C.2	1	PTX1    -0.1060
63	O2     0.1170    -0.4720     1.8320	O.3	1	PTX1    -0.4680
64	O3     2.7200    -1.4620     1.0720	O.co2	1	PTX1    -0.6230
65	O4     3.0220     0.6370     0.1750	O.3	1	PTX1    -0.4320
66	O5     7.0320     2.0070     2.3680	O.3	1	PTX1    -0.4600
67	O6     7.4740     2.8410    -0.1040	O.3	1	PTX1    -0.3100
68	O7     6.3100     2.8400    -2.0250	O.co2	1	PTX1    -0.4960
69	O8     9.4850    -2.2480     0.7340	O.2	1	PTX1    -0.5150
70	O9     6.8190    -2.9530    -0.8990	O.3	1	PTX1    -0.4270
71	O10     7.9840    -4.8270    -0.2890	O.co2	1	PTX1    -0.6250
72	O11    10.7960    -0.0900    -2.4700	O.3	1	PTX1    -0.6420
73	O12    11.5940     2.1410    -1.2570	O.3	1	PTX1    -0.3430
74	O13     9.8220     2.7200     1.2510	O.3	1	PTX1    -0.4220
75	O14    11.4610     4.3010     0.9100	O.co2	1	PTX1    -0.6170
76	O15     1.7800    -0.5270    -3.6880	O.2	1	PTX1    -0.4580
77	H9     0.7260     1.0950     0.6270	H	1	PTX1     0.0900
78	H10     4.5940     1.0900    -0.9660	H	1	PTX1     0.0900
79	H11     5.0550     2.6340     0.6190	H	1	PTX1     0.0900
80	H12     4.5070     1.6990     1.9570	H	1	PTX1     0.0900
81	H13     7.1300     2.9000     2.0220	H	1	PTX1     0.2920
82	H14     6.9000     1.0010    -0.7560	H	1	PTX1     0.0900
83	H15     6.0290     4.9890    -3.2070	H	1	PTX1     0.1150
84	H16     6.3700     7.3490    -3.4170	H	1	PTX1     0.1150
85	H17     7.6260     8.5870    -1.7270	H	1	PTX1     0.1150
86	H18     8.5450     7.4060     0.2070	H	1	PTX1     0.1150
87	H19     8.2240     5.0470     0.4620	H	1	PTX1     0.1150
88	H20     9.0380     0.5040     1.1120	H	1	PTX1     0.0900
89	H21     8.3570     0.4330    -2.7020	H	1	PTX1     0.0900
90	H22     8.5320    -1.3620    -2.7300	H	1	PTX1     0.0900
91	H23     7.1490    -0.6070    -1.9550	H	1	PTX1     0.0900
92	H24     7.1280    -2.8910     1.1190	H	1	PTX1     0.0900
93	H25     7.1370    -4.1380    -3.2300	H	1	PTX1     0.0900
94	H26     7.1500    -5.8090    -2.5510	H	1	PTX1     0.0900
95	H27     5.6650    -4.7970    -2.3980	H	1	PTX1     0.0900
96	H28     5.2420    -1.4150    -2.2500	H	1	PTX1     0.0900
97	H29     4.3710    -2.5490    -1.1170	H	1	PTX1     0.0900
98	H30     3.6040    -1.0780    -1.6980	H	1	PTX1     0.0900
99	H31     5.3600     0.0970     3.7660	H	1	PTX1     0.0900
100	H32     4.2800    -0.3380     2.4420	H	1	PTX1     0.0900
101	H33     5.2260    -1.5980     3.1750	H	1	PTX1     0.0900
102	H34     7.6840    -0.1080     3.7130	H	1	PTX1     0.0900
103	H35     7.4800    -1.7910     3.1640	H	1	PTX1     0.0900
104	H36     8.6520    -0.7460     2.4150	H	1	PTX1     0.0900
105	H37    10.7560    -1.7340    -1.3380	H	1	PTX1     0.0900
106	H38    11.6670     0.3110    -2.4960	H	1	PTX1     0.4000
107	H39    11.4480    -0.5390     0.7820	H	1	PTX1     0.0900
108	H40    12.5930    -0.2950    -0.5670	H	1	PTX1     0.0900
109	H41    12.1280     1.8220     0.7090	H	1	PTX1     0.0900
110	H42    10.2710     3.7600    -1.1800	H	1	PTX1     0.0900
111	H43     9.6840     2.2800    -2.0680	H	1	PTX1     0.0900
112	H44     8.9850     4.6010     2.8420	H	1	PTX1     0.0900
113	H45    10.2720     3.6590     3.7030	H	1	PTX1     0.0900
114	H46    10.6060     5.3340     3.1240	H	1	PTX1     0.0900
115	H47    -0.8780    -0.0680    -0.6070	H	1	PTX1     0.0900
116	H48     1.7120     0.3510    -1.6050	H	1	PTX1     0.2740
117	H49     1.0770    -2.5360    -4.9020	H	1	PTX1     0.1150
118	H50    -0.6200    -4.0030    -5.7240	H	1	PTX1     0.1150
119	H51    -2.8880    -3.9280    -4.8150	H	1	PTX1     0.1150
120	H52    -3.4330    -2.3030    -3.0730	H	1	PTX1     0.1150
121	H53    -1.7860    -0.7940    -2.2590	H	1	PTX1     0.1150
122	H54     1.8110    -2.6280    -1.2300	H	1	PTX1     0.1150
123	H55     1.4680    -5.0030    -0.9830	H	1	PTX1     0.1150
124	H56    -0.6150    -5.8580    -0.0250	H	1	PTX1     0.1150
125	H57    -2.3520    -4.2880     0.6870	H	1	PTX1     0.1150
126	H58    -2.0140    -1.9000     0.4420	H	1	PTX1     0.1150
@<TRIPOS>BOND
1	1	5	1
2	1	7	1
3	1	8	1
4	1	9	1
5	2	3	1
6	2	4	1
7	2	63	1
8	3	10	1
9	3	11	1
10	3	12	1
11	4	6	1
12	4	13	1
13	4	14	1
14	2	5	1
15	15	50	1
16	15	116	1
17	16	17	1
18	16	49	1
19	16	77	1
20	17	64	2
21	17	65	1
22	18	19	1
23	18	37	1
24	18	78	1
25	19	20	1
26	19	79	1
27	19	80	1
28	20	21	1
29	20	39	1
30	20	66	1
31	21	29	1
32	21	67	1
33	21	82	1
34	22	23	1
35	22	68	2
36	23	24	1
37	23	28	2
38	24	25	2
39	24	83	1
40	25	26	1
41	25	84	1
42	26	27	2
43	26	85	1
44	27	28	1
45	27	86	1
46	28	87	1
47	29	30	1
48	29	46	1
49	29	88	1
50	30	31	1
51	30	32	1
52	30	42	1
53	31	89	1
54	31	90	1
55	31	91	1
56	32	33	1
57	32	69	2
58	33	36	1
59	33	70	1
60	33	92	1
61	34	35	1
62	34	71	2
63	35	93	1
64	35	94	1
65	35	95	1
66	36	37	2
67	36	39	1
68	37	38	1
69	38	96	1
70	38	97	1
71	38	98	1
72	39	40	1
73	39	41	1
74	40	99	1
75	40	100	1
76	40	101	1
77	41	102	1
78	41	103	1
79	41	104	1
80	42	43	1
81	42	72	1
82	42	105	1
83	43	44	1
84	43	107	1
85	43	108	1
86	44	46	1
87	44	73	1
88	44	109	1
89	45	46	1
90	45	110	1
91	45	111	1
92	46	74	1
93	47	48	1
94	47	75	2
95	48	112	1
96	48	113	1
97	48	114	1
98	15	49	1
99	49	57	1
100	49	115	1
101	50	51	1
102	50	76	2
103	51	52	1
104	51	56	2
105	52	53	2
106	52	117	1
107	53	54	1
108	53	118	1
109	54	55	2
110	54	119	1
111	55	56	1
112	55	120	1
113	56	121	1
114	57	58	1
115	57	62	2
116	58	59	2
117	58	122	1
118	59	60	1
119	59	123	1
120	60	61	2
121	60	124	1
122	61	62	1
123	61	125	1
124	62	126	1
125	16	63	1
126	18	65	1
127	66	81	1
128	22	67	1
129	34	70	1
130	72	106	1
131	45	73	1
132	47	74	1
