@<TRIPOS>MOLECULE
FUD
92 93 1 0 0
SMALL
USER_CHARGES


@<TRIPOS>ATOM
      1 C          16.8339    1.1464   -0.8094 C.3       1     FUL    0.0000
      2 C          15.5745    0.2933   -1.0113 C.3       1     FUL    0.0000
      3 C          14.2900    1.1111   -0.8024 C.3       1     FUL    0.0000
      4 C          13.0263    0.2600   -1.0081 C.3       1     FUL    0.0000
      5 C          11.7408    1.0762   -0.7955 C.3       1     FUL    0.0000
      6 C          10.4784    0.2256   -1.0106 C.3       1     FUL    0.0000
      7 C           9.1915    1.0381   -0.7923 C.3       1     FUL    0.0000
      8 C           7.9309    0.1884   -1.0212 C.3       1     FUL    0.0000
      9 C           6.6417    0.9951   -0.7952 C.3       1     FUL    0.0000
     10 C           5.3842    0.1456   -1.0418 C.3       1     FUL    0.0000
     11 C           4.0916    0.9443   -0.8071 C.3       1     FUL    0.0000
     12 C           2.8381    0.0954   -1.0748 C.3       1     FUL    0.0000
     13 C           1.5416    0.8845   -0.8294 C.3       1     FUL    0.0000
     14 C           0.2925    0.0368   -1.1211 C.3       1     FUL    0.0000
     15 C          -1.0083    0.8148   -0.8631 C.3       1     FUL    0.0000
     16 C          -2.2525   -0.0307   -1.1802 C.3       1     FUL    0.0000
     17 C          -3.5574    0.7355   -0.9086 C.3       1     FUL    0.0000
     18 C          -4.7899   -0.1050   -1.2486 C.3       1     FUL    0.0000
     19 O          -5.9419    0.6553   -0.9733 O.3       1     FUL    0.0000
     20 C          -7.1755   -0.0334   -1.0590 C.3       1     FUL    0.0000
     21 C          -8.2568    1.0362   -0.9038 C.3       1     FUL    0.0000
     22 C          -7.3295   -0.7560   -2.3930 C.3       1     FUL    0.0000
     23 O          -7.1858   -0.8915    0.0604 O.3       1     FUD    0.0000
     24 C          -8.2061   -1.8593    0.0832 C.3       1     FUD    0.0000
     25 C          -8.2596   -2.4842    1.4741 C.3       1     FUD    0.0000
     26 O          -8.5424   -1.4874    2.4202 O.3       1     FUD    0.0000
     27 C          -9.7529   -1.7920    3.0766 C.3       1     FUD    0.0000
     28 N         -10.5100   -0.5843    3.4704 N.ar      1     FUD    0.0000
     29 C         -10.1351   -0.0248    4.6501 C.ar      1     FUD    0.0000
     30 C         -10.4273    1.2289    5.0441 C.ar      1     FUD    0.0000
     31 F         -10.0148    1.6581    6.2301 F         1     FUD    0.0000
     32 C         -11.0528    2.0777    4.1820 C.ar      1     FUD    0.0000
     33 O         -11.4460    3.1915    4.4429 O.2       1     FUD    0.0000
     34 N         -11.1698    1.6031    2.9049 N.ar      1     FUD    0.0000
     35 C         -10.8042    0.3476    2.4964 C.ar      1     FUD    0.0000
     36 O         -10.8016    0.1131    1.3160 O.2       1     FUD    0.0000
     37 C         -10.5015   -2.8021    2.2057 C.3       1     FUD    0.0000
     38 C          -9.3336   -3.5572    1.5895 C.3       1     FUD    0.0000
     39 O          -8.9117   -4.5635    2.4801 O.3       1     FUD    0.0000
     40 H          17.7563    0.5401   -0.9631 H         1     FUL    0.0000
     41 H          16.8633    1.9961   -1.5292 H         1     FUL    0.0000
     42 H          16.8732    1.5674    0.2213 H         1     FUL    0.0000
     43 H          15.5928   -0.5634   -0.2957 H         1     FUL    0.0000
     44 H          15.5823   -0.1341   -2.0425 H         1     FUL    0.0000
     45 H          14.2787    1.9688   -1.5163 H         1     FUL    0.0000
     46 H          14.2867    1.5356    0.2297 H         1     FUL    0.0000
     47 H          13.0399   -0.5996   -0.2965 H         1     FUL    0.0000
     48 H          13.0297   -0.1618   -2.0413 H         1     FUL    0.0000
     49 H          11.7295    1.9392   -1.5029 H         1     FUL    0.0000
     50 H          11.7344    1.4928    0.2398 H         1     FUL    0.0000
     51 H          10.4918   -0.6406   -0.3070 H         1     FUL    0.0000
     52 H          10.4837   -0.1867   -2.0476 H         1     FUL    0.0000
     53 H           9.1812    1.9092   -1.4897 H         1     FUL    0.0000
     54 H           9.1816    1.4426    0.2478 H         1     FUL    0.0000
     55 H           7.9444   -0.6870   -0.3292 H         1     FUL    0.0000
     56 H           7.9394   -0.2100   -2.0636 H         1     FUL    0.0000
     57 H           6.6319    1.8766   -1.4794 H         1     FUL    0.0000
     58 H           6.6272    1.3838    0.2508 H         1     FUL    0.0000
     59 H           5.3982   -0.7408   -0.3640 H         1     FUL    0.0000
     60 H           5.3974   -0.2358   -2.0905 H         1     FUL    0.0000
     61 H           4.0820    1.8379   -1.4754 H         1     FUL    0.0000
     62 H           4.0713    1.3139    0.2457 H         1     FUL    0.0000
     63 H           2.8527   -0.8041   -0.4144 H         1     FUL    0.0000
     64 H           2.8566   -0.2655   -2.1306 H         1     FUL    0.0000
     65 H           1.5318    1.7920   -1.4788 H         1     FUL    0.0000
     66 H           1.5151    1.2317    0.2307 H         1     FUL    0.0000
     67 H           0.3082   -0.8773   -0.4811 H         1     FUL    0.0000
     68 H           0.3166   -0.3001   -2.1847 H         1     FUL    0.0000
     69 H          -1.0190    1.7373   -1.4908 H         1     FUL    0.0000
     70 H          -1.0409    1.1368    0.2049 H         1     FUL    0.0000
     71 H          -2.2356   -0.9601   -0.5626 H         1     FUL    0.0000
     72 H          -2.2228   -0.3417   -2.2516 H         1     FUL    0.0000
     73 H          -3.5713    1.6738   -1.5134 H         1     FUL    0.0000
     74 H          -3.5957    1.0316    0.1671 H         1     FUL    0.0000
     75 H          -4.7828   -1.0360   -0.6393 H         1     FUL    0.0000
     76 H          -4.7592   -0.3629   -2.3312 H         1     FUL    0.0000
     77 H          -9.2850    0.6318   -1.0275 H         1     FUL    0.0000
     78 H          -8.1374    1.8331   -1.6730 H         1     FUL    0.0000
     79 H          -8.2044    1.5257    0.0958 H         1     FUL    0.0000
     80 H          -7.0970   -0.0730   -3.2416 H         1     FUL    0.0000
     81 H          -6.6719   -1.6496   -2.4780 H         1     FUL    0.0000
     82 H          -8.3733   -1.1066   -2.5552 H         1     FUL    0.0000
     83 H          -9.1877   -1.4043   -0.1641 H         1     FUD    0.0000
     84 H          -7.9732   -2.6527   -0.6633 H         1     FUD    0.0000
     85 H          -7.2534   -2.9089    1.7067 H         1     FUD    0.0000
     86 H          -9.4683   -2.3707    3.9931 H         1     FUD    0.0000
     87 H          -9.5562   -0.6459    5.3546 H         1     FUD    0.0000
     88 H         -11.5360    2.2281    2.2067 H         1     FUD    0.0000
     89 H         -11.1011   -2.3265    1.4000 H         1     FUD    0.0000
     90 H         -11.1884   -3.4564    2.7885 H         1     FUD    0.0000
     91 H          -9.5833   -4.0565    0.6282 H         1     FUD    0.0000
     92 H          -9.5050   -5.3160    2.4228 H         1     FUD    0.0000
@<TRIPOS>BOND
     1     1     2     1
     2     1    40     1
     3     1    41     1
     4     1    42     1
     5     2     3     1
     6     2    43     1
     7     2    44     1
     8     3     4     1
     9     3    45     1
    10     3    46     1
    11     4     5     1
    12     4    47     1
    13     4    48     1
    14     5     6     1
    15     5    49     1
    16     5    50     1
    17     6     7     1
    18     6    51     1
    19     6    52     1
    20     7     8     1
    21     7    53     1
    22     7    54     1
    23     8     9     1
    24     8    55     1
    25     8    56     1
    26     9    10     1
    27     9    57     1
    28     9    58     1
    29    10    11     1
    30    10    59     1
    31    10    60     1
    32    11    12     1
    33    11    61     1
    34    11    62     1
    35    12    13     1
    36    12    63     1
    37    12    64     1
    38    13    14     1
    39    13    65     1
    40    13    66     1
    41    14    15     1
    42    14    67     1
    43    14    68     1
    44    15    16     1
    45    15    69     1
    46    15    70     1
    47    16    17     1
    48    16    71     1
    49    16    72     1
    50    17    18     1
    51    17    73     1
    52    17    74     1
    53    18    19     1
    54    18    75     1
    55    18    76     1
    56    19    20     1
    57    20    21     1
    58    20    22     1
    59    20    23     1
    60    21    77     1
    61    21    78     1
    62    21    79     1
    63    22    80     1
    64    22    81     1
    65    22    82     1
    66    23    24     1
    67    24    25     1
    68    24    83     1
    69    24    84     1
    70    25    26     1
    71    25    38     1
    72    25    85     1
    73    26    27     1
    74    27    28     1
    75    27    37     1
    76    27    86     1
    77    28    29     1
    78    28    35     1
    79    29    30     2
    80    29    87     1
    81    30    31     1
    82    30    32     1
    83    32    33     2
    84    32    34     1
    85    34    35     1
    86    34    88     1
    87    35    36     2
    88    37    38     1
    89    37    89     1
    90    37    90     1
    91    38    39     1
    92    38    91     1
    93    39    92     1
