@<TRIPOS>MOLECULE
ABI
57 61 1 0 0
SMALL
USER_CHARGES


@<TRIPOS>ATOM
      1 C          -7.3199   -0.6528    0.4546 C.3       1     ABI    0.0000
      2 C          -6.4359   -0.9898   -0.7698 C.3       1     ABI    0.0000
      3 C          -7.1182   -0.4707   -2.0664 C.3       1     ABI    0.0000
      4 C          -7.4832   -1.5774   -3.0670 C.3       1     ABI    0.0000
      5 C          -8.3319   -2.6528   -2.3998 C.3       1     ABI    0.0000
      6 O          -9.5477   -2.0851   -1.9691 O.3       1     ABI    0.0000
      7 C          -7.6011   -3.2744   -1.2107 C.3       1     ABI    0.0000
      8 C          -6.3456   -2.5122   -0.8343 C.2       1     ABI    0.0000
      9 C          -5.2268   -3.1902   -0.5294 C.2       1     ABI    0.0000
     10 C          -3.9294   -2.5604   -0.1166 C.3       1     ABI    0.0000
     11 C          -4.1154   -1.1119    0.3523 C.3       1     ABI    0.0000
     12 C          -2.7611   -0.3997    0.4437 C.3       1     ABI    0.0000
     13 C          -1.6294   -1.0525    1.2408 C.3       1     ABI    0.0000
     14 C          -0.7169    0.1427    1.3274 C.2       1     ABI    0.0000
     15 C          -1.3257    1.3325    1.1462 C.2       1     ABI    0.0000
     16 C          -0.6966    2.5277    1.2253 C.ar      1     ABI    0.0000
     17 C          -1.3510    3.7052    1.2467 C.ar      1     ABI    0.0000
     18 C          -0.6780    4.8627    1.3295 C.ar      1     ABI    0.0000
     19 C           0.6588    4.8137    1.3954 C.ar      1     ABI    0.0000
     20 N           1.3033    3.7272    1.3837 N.ar      1     ABI    0.0000
     21 C           0.6472    2.6463    1.3052 C.ar      1     ABI    0.0000
     22 C          -2.8264    1.0632    0.9535 C.3       1     ABI    0.0000
     23 C          -3.4868    1.2092    2.3416 C.3       1     ABI    0.0000
     24 C          -3.6187    1.7933   -0.1518 C.3       1     ABI    0.0000
     25 C          -5.0141    1.1670   -0.3615 C.3       1     ABI    0.0000
     26 C          -5.0168   -0.3533   -0.6447 C.3       1     ABI    0.0000
     27 H          -7.5295    0.4345    0.5469 H         1     ABI    0.0000
     28 H          -8.3210   -1.1326    0.3932 H         1     ABI    0.0000
     29 H          -6.8588   -0.9940    1.4076 H         1     ABI    0.0000
     30 H          -8.0399    0.1029   -1.8132 H         1     ABI    0.0000
     31 H          -6.4751    0.2594   -2.6092 H         1     ABI    0.0000
     32 H          -8.0359   -1.1419   -3.9338 H         1     ABI    0.0000
     33 H          -6.5531   -2.0374   -3.4787 H         1     ABI    0.0000
     34 H          -8.6127   -3.4373   -3.1425 H         1     ABI    0.0000
     35 H         -10.1335   -2.7831   -1.6664 H         1     ABI    0.0000
     36 H          -7.3453   -4.3302   -1.4633 H         1     ABI    0.0000
     37 H          -8.2683   -3.3373   -0.3211 H         1     ABI    0.0000
     38 H          -5.2244   -4.2914   -0.5957 H         1     ABI    0.0000
     39 H          -3.2384   -2.6175   -0.9897 H         1     ABI    0.0000
     40 H          -3.4814   -3.1602    0.7108 H         1     ABI    0.0000
     41 H          -4.5918   -1.1280    1.3590 H         1     ABI    0.0000
     42 H          -2.3665   -0.3680   -0.6080 H         1     ABI    0.0000
     43 H          -1.1565   -1.8973    0.6904 H         1     ABI    0.0000
     44 H          -1.9446   -1.3873    2.2538 H         1     ABI    0.0000
     45 H           0.3410   -0.0314    1.5621 H         1     ABI    0.0000
     46 H          -2.4441    3.7785    1.2310 H         1     ABI    0.0000
     47 H          -1.2073    5.8295    1.3543 H         1     ABI    0.0000
     48 H           1.2501    5.7418    1.4681 H         1     ABI    0.0000
     49 H           1.3174    1.7724    1.2917 H         1     ABI    0.0000
     50 H          -2.9563    0.6190    3.1214 H         1     ABI    0.0000
     51 H          -3.4811    2.2689    2.6796 H         1     ABI    0.0000
     52 H          -4.5454    0.8784    2.3702 H         1     ABI    0.0000
     53 H          -3.7798    2.8675    0.0819 H         1     ABI    0.0000
     54 H          -3.0515    1.7669   -1.1117 H         1     ABI    0.0000
     55 H          -5.5250    1.7128   -1.1890 H         1     ABI    0.0000
     56 H          -5.6137    1.3838    0.5489 H         1     ABI    0.0000
     57 H          -4.5192   -0.4836   -1.6407 H         1     ABI    0.0000
@<TRIPOS>BOND
     1     1     2     1
     2     1    27     1
     3     1    28     1
     4     1    29     1
     5     2     3     1
     6     2     8     1
     7     2    26     1
     8     3     4     1
     9     3    30     1
    10     3    31     1
    11     4     5     1
    12     4    32     1
    13     4    33     1
    14     5     6     1
    15     5     7     1
    16     5    34     1
    17     6    35     1
    18     7     8     1
    19     7    36     1
    20     7    37     1
    21     8     9     2
    22     9    10     1
    23     9    38     1
    24    10    11     1
    25    10    39     1
    26    10    40     1
    27    11    12     1
    28    11    26     1
    29    11    41     1
    30    12    13     1
    31    12    22     1
    32    12    42     1
    33    13    14     1
    34    13    43     1
    35    13    44     1
    36    14    15     2
    37    14    45     1
    38    15    16     1
    39    15    22     1
    40    16    17     1
    41    16    21     2
    42    17    18     2
    43    17    46     1
    44    18    19     1
    45    18    47     1
    46    19    20     2
    47    19    48     1
    48    20    21     1
    49    21    49     1
    50    22    23     1
    51    22    24     1
    52    23    50     1
    53    23    51     1
    54    23    52     1
    55    24    25     1
    56    24    53     1
    57    24    54     1
    58    25    26     1
    59    25    55     1
    60    25    56     1
    61    26    57     1
