# created with PyMOL 2.5.4
@<TRIPOS>MOLECULE
PTX
171 177 2               
SMALL
USER_CHARGES
@<TRIPOS>ATOM
1	   C	-9.019	-12.040	-3.428	C.3	1	PTL1	0.000	
2	   C	-7.852	-11.120	-3.809	C.3	1	PTL1	0.000	
3	   C	-8.106	-9.666	-3.382	C.3	1	PTL1	0.000	
4	   C	-6.943	-8.738	-3.772	C.3	1	PTL1	0.000	
5	   C	-7.204	-7.282	-3.353	C.3	1	PTL1	0.000	
6	   C	-6.055	-6.349	-3.768	C.3	1	PTL1	0.000	
7	   C	-6.330	-4.889	-3.373	C.3	1	PTL1	0.000	
8	   C	-5.205	-3.946	-3.829	C.3	1	PTL1	0.000	
9	   C	-5.504	-2.483	-3.468	C.3	1	PTL1	0.000	
10	   C	-4.387	-1.532	-3.928	C.3	1	PTL1	0.000	
11	   C	-4.741	-0.063	-3.647	C.3	1	PTL1	0.000	
12	   C	-3.615	0.894	-4.068	C.3	1	PTL1	0.000	
13	   C	-4.034	2.365	-3.909	C.3	1	PTL1	0.000	
14	   C	-2.874	3.335	-4.201	C.3	1	PTL1	0.000	
15	   C	-3.266	4.810	-4.036	C.3	1	PTL1	0.000	
16	   C	-3.670	5.477	-5.354	C.3	1	PTL1	0.000	
17	   C	-1.030	5.628	-3.368	C.3	1	PTL1	0.000	
18	   C	-0.486	5.303	-4.760	C.3	1	PTL1	0.000	
19	   C	-0.556	7.061	-3.081	C.3	1	PTL1	0.000	
20	   O	-2.436	5.640	-3.258	O.3	1	PTL1	0.000	
21	   H	-8.821	-13.090	-3.744	 H	1	PTL1	0.000	
22	   H	-9.185	-12.042	-2.326	 H	1	PTL1	0.000	
23	   H	-9.965	-11.712	-3.917	 H	1	PTL1	0.000	
24	   H	-7.697	-11.163	-4.914	 H	1	PTL1	0.000	
25	   H	-6.917	-11.493	-3.327	 H	1	PTL1	0.000	
26	   H	-8.257	-9.626	-2.277	 H	1	PTL1	0.000	
27	   H	-9.046	-9.301	-3.860	 H	1	PTL1	0.000	
28	   H	-6.792	-8.783	-4.877	 H	1	PTL1	0.000	
29	   H	-6.003	-9.099	-3.291	 H	1	PTL1	0.000	
30	   H	-7.341	-7.233	-2.247	 H	1	PTL1	0.000	
31	   H	-8.153	-6.930	-3.823	 H	1	PTL1	0.000	
32	   H	-5.914	-6.410	-4.873	 H	1	PTL1	0.000	
33	   H	-5.106	-6.690	-3.290	 H	1	PTL1	0.000	
34	   H	-6.446	-4.819	-2.265	 H	1	PTL1	0.000	
35	   H	-7.293	-4.559	-3.830	 H	1	PTL1	0.000	
36	   H	-5.077	-4.033	-4.935	 H	1	PTL1	0.000	
37	   H	-4.245	-4.260	-3.359	 H	1	PTL1	0.000	
38	   H	-5.637	-2.390	-2.364	 H	1	PTL1	0.000	
39	   H	-6.465	-2.178	-3.946	 H	1	PTL1	0.000	
40	   H	-4.214	-1.664	-5.022	 H	1	PTL1	0.000	
41	   H	-3.436	-1.792	-3.408	 H	1	PTL1	0.000	
42	   H	-4.947	0.068	-2.558	 H	1	PTL1	0.000	
43	   H	-5.674	0.199	-4.200	 H	1	PTL1	0.000	
44	   H	-3.337	0.707	-5.133	 H	1	PTL1	0.000	
45	   H	-2.712	0.687	-3.446	 H	1	PTL1	0.000	
46	   H	-4.405	2.519	-2.868	 H	1	PTL1	0.000	
47	   H	-4.886	2.585	-4.596	 H	1	PTL1	0.000	
48	   H	-2.542	3.146	-5.248	 H	1	PTL1	0.000	
49	   H	-2.023	3.053	-3.548	 H	1	PTL1	0.000	
50	   H	-4.216	4.809	-3.438	 H	1	PTL1	0.000	
51	   H	-3.943	6.547	-5.205	 H	1	PTL1	0.000	
52	   H	-4.555	4.967	-5.800	 H	1	PTL1	0.000	
53	   H	-2.868	5.436	-6.122	 H	1	PTL1	0.000	
54	   H	0.626	5.385	-4.764	 H	1	PTL1	0.000	
55	   H	-0.848	6.013	-5.535	 H	1	PTL1	0.000	
56	   H	-0.686	4.268	-5.099	 H	1	PTL1	0.000	
57	   H	-0.942	7.478	-2.126	 H	1	PTL1	0.000	
58	   H	0.554	7.152	-3.088	 H	1	PTL1	0.000	
59	   H	-0.931	7.758	-3.865	 H	1	PTL1	0.000	
60	   N	6.999	-3.189	4.019	N.pl3	2	PTX1	0.000	
61	   C	-0.191	5.005	-1.148	C.3	2	PTX1	0.000	
62	   C	-1.424	5.324	-0.300	C.3	2	PTX1	0.000	
63	   C	-2.297	4.133	0.047	C.3	2	PTX1	0.000	
64	   C	-2.147	2.286	-0.775	C.3	2	PTX1	0.000	
65	   C	-1.539	2.883	0.493	C.3	2	PTX1	0.000	
66	   C	-3.305	2.062	1.989	C.2	2	PTX1	0.000	
67	   C	-3.390	1.573	3.424	C.3	2	PTX1	0.000	
68	   C	-0.005	2.983	0.530	C.3	2	PTX1	0.000	
69	   C	0.684	1.630	0.859	C.3	2	PTX1	0.000	
70	   C	-0.176	-0.413	-0.196	C.2	2	PTX1	0.000	
71	   C	-1.189	-1.327	-0.308	C.2	2	PTX1	0.000	
72	   C	-1.168	-2.305	-1.235	C.2	2	PTX1	0.000	
73	   C	-2.171	-3.193	-1.325	C.2	2	PTX1	0.000	
74	   C	-3.221	-3.115	-0.495	C.2	2	PTX1	0.000	
75	   C	-3.255	-2.148	0.432	C.2	2	PTX1	0.000	
76	   C	-2.246	-1.268	0.526	C.2	2	PTX1	0.000	
77	   C	1.443	1.501	2.208	C.3	2	PTX1	0.000	
78	   C	2.250	0.186	2.193	C.3	2	PTX1	0.000	
79	   C	3.468	0.269	1.252	C.3	2	PTX1	0.000	
80	   C	5.724	-0.149	2.104	C.2	2	PTX1	0.000	
81	   C	6.594	-1.334	2.522	C.3	2	PTX1	0.000	
82	   C	6.096	-2.051	3.788	C.3	2	PTX1	0.000	
83	   C	7.245	-3.856	5.188	C.2	2	PTX1	0.000	
84	   C	6.480	-3.742	6.313	C.2	2	PTX1	0.000	
85	   C	5.152	-3.525	6.268	C.2	2	PTX1	0.000	
86	   C	4.423	-3.410	7.389	C.2	2	PTX1	0.000	
87	   C	5.009	-3.524	8.589	C.2	2	PTX1	0.000	
88	   C	6.324	-3.771	8.655	C.2	2	PTX1	0.000	
89	   C	7.047	-3.887	7.529	C.2	2	PTX1	0.000	
90	   C	6.110	-1.059	4.937	C.2	2	PTX1	0.000	
91	   C	7.267	-0.647	5.487	C.2	2	PTX1	0.000	
92	   C	7.278	0.231	6.502	C.2	2	PTX1	0.000	
93	   C	6.124	0.717	6.983	C.2	2	PTX1	0.000	
94	   C	4.963	0.322	6.440	C.2	2	PTX1	0.000	
95	   C	4.962	-0.556	5.425	C.2	2	PTX1	0.000	
96	   C	3.847	1.663	0.755	C.2	2	PTX1	0.000	
97	   C	4.776	1.613	-0.444	C.3	2	PTX1	0.000	
98	   C	3.266	2.777	1.270	C.2	2	PTX1	0.000	
99	   C	3.270	4.159	0.616	C.3	2	PTX1	0.000	
100	   C	4.389	5.430	-1.100	C.2	2	PTX1	0.000	
101	   C	5.239	5.215	-2.336	C.3	2	PTX1	0.000	
102	   C	1.832	4.678	0.344	C.2	2	PTX1	0.000	
103	   C	0.744	3.922	-0.491	C.3	2	PTX1	0.000	
104	   C	1.445	3.177	-1.653	C.3	2	PTX1	0.000	
105	   C	2.464	2.616	2.568	C.3	2	PTX1	0.000	
106	   C	3.479	2.220	3.687	C.3	2	PTX1	0.000	
107	   C	1.867	3.876	3.258	C.3	2	PTX1	0.000	
108	   O	-0.520	4.654	-2.473	O.3	2	PTX1	0.000	
109	   O	-2.832	3.486	-1.079	O.3	2	PTX1	0.000	
110	   O	-2.016	2.402	1.715	O.3	2	PTX1	0.000	
111	   O	-4.253	2.118	1.240	O.co2	2	PTX1	0.000	
112	   O	-0.241	0.574	0.765	O.3	2	PTX1	0.000	
113	   O	0.771	-0.458	-0.956	O.co2	2	PTX1	0.000	
114	   O	0.466	1.411	3.210	O.3	2	PTX1	0.000	
115	   O	4.503	-0.588	1.690	O.3	2	PTX1	0.000	
116	   O	6.121	0.993	2.148	O.co2	2	PTX1	0.000	
117	   O	6.704	-2.288	1.479	O.3	2	PTX1	0.000	
118	   O	8.299	-4.449	5.208	O.2	2	PTX1	0.000	
119	   O	4.064	4.226	-0.555	O.3	2	PTX1	0.000	
120	   O	4.046	6.508	-0.674	O.co2	2	PTX1	0.000	
121	   O	1.532	5.731	0.871	O.2	2	PTX1	0.000	
122	   H	0.441	5.918	-1.237	 H	2	PTX1	0.000	
123	   H	-1.091	5.769	0.667	 H	2	PTX1	0.000	
124	   H	-2.061	6.107	-0.768	 H	2	PTX1	0.000	
125	   H	-3.132	4.431	0.720	 H	2	PTX1	0.000	
126	   H	-2.850	1.437	-0.662	 H	2	PTX1	0.000	
127	   H	-1.392	2.069	-1.560	 H	2	PTX1	0.000	
128	   H	-2.698	0.715	3.586	 H	2	PTX1	0.000	
129	   H	-3.120	2.394	4.127	 H	2	PTX1	0.000	
130	   H	-4.422	1.233	3.667	 H	2	PTX1	0.000	
131	   H	0.027	3.557	1.478	 H	2	PTX1	0.000	
132	   H	1.443	1.478	0.080	 H	2	PTX1	0.000	
133	   H	-0.338	-2.419	-1.951	 H	2	PTX1	0.000	
134	   H	-2.136	-3.988	-2.089	 H	2	PTX1	0.000	
135	   H	-4.047	-3.842	-0.573	 H	2	PTX1	0.000	
136	   H	-4.115	-2.078	1.120	 H	2	PTX1	0.000	
137	   H	-2.324	-0.498	1.310	 H	2	PTX1	0.000	
138	   H	-0.193	0.763	2.942	 H	2	PTX1	0.000	
139	   H	1.611	-0.686	1.922	 H	2	PTX1	0.000	
140	   H	2.557	-0.081	3.227	 H	2	PTX1	0.000	
141	   H	3.105	-0.213	0.306	 H	2	PTX1	0.000	
142	   H	7.630	-0.956	2.680	 H	2	PTX1	0.000	
143	   H	7.235	-1.949	0.755	 H	2	PTX1	0.000	
144	   H	5.077	-2.439	3.561	 H	2	PTX1	0.000	
145	   H	7.607	-3.450	3.243	 H	2	PTX1	0.000	
146	   H	4.605	-3.475	5.317	 H	2	PTX1	0.000	
147	   H	3.335	-3.236	7.326	 H	2	PTX1	0.000	
148	   H	4.412	-3.432	9.512	 H	2	PTX1	0.000	
149	   H	6.812	-3.877	9.638	 H	2	PTX1	0.000	
150	   H	8.127	-4.079	7.647	 H	2	PTX1	0.000	
151	   H	8.228	-1.031	5.107	 H	2	PTX1	0.000	
152	   H	8.236	0.554	6.942	 H	2	PTX1	0.000	
153	   H	6.129	1.438	7.817	 H	2	PTX1	0.000	
154	   H	4.010	0.718	6.828	 H	2	PTX1	0.000	
155	   H	3.997	-0.866	4.992	 H	2	PTX1	0.000	
156	   H	4.236	1.729	-1.408	 H	2	PTX1	0.000	
157	   H	5.595	2.360	-0.367	 H	2	PTX1	0.000	
158	   H	5.304	0.638	-0.516	 H	2	PTX1	0.000	
159	   H	3.763	4.822	1.367	 H	2	PTX1	0.000	
160	   H	6.184	4.688	-2.070	 H	2	PTX1	0.000	
161	   H	4.683	4.609	-3.087	 H	2	PTX1	0.000	
162	   H	5.505	6.189	-2.806	 H	2	PTX1	0.000	
163	   H	0.740	2.521	-2.210	 H	2	PTX1	0.000	
164	   H	1.909	3.888	-2.374	 H	2	PTX1	0.000	
165	   H	2.279	2.521	-1.354	 H	2	PTX1	0.000	
166	   H	2.966	1.962	4.641	 H	2	PTX1	0.000	
167	   H	4.133	1.362	3.461	 H	2	PTX1	0.000	
168	   H	4.200	3.042	3.901	 H	2	PTX1	0.000	
169	   H	1.431	3.623	4.251	 H	2	PTX1	0.000	
170	   H	2.638	4.657	3.443	 H	2	PTX1	0.000	
171	   H	1.041	4.404	2.761	 H	2	PTX1	0.000	
@<TRIPOS>BOND
1 1 2 1
2 1 21 1
3 1 22 1
4 1 23 1
5 2 3 1
6 2 24 1
7 2 25 1
8 3 4 1
9 3 26 1
10 3 27 1
11 4 5 1
12 4 28 1
13 4 29 1
14 5 6 1
15 5 30 1
16 5 31 1
17 6 7 1
18 6 32 1
19 6 33 1
20 7 8 1
21 7 34 1
22 7 35 1
23 8 9 1
24 8 36 1
25 8 37 1
26 9 10 1
27 9 38 1
28 9 39 1
29 10 11 1
30 10 40 1
31 10 41 1
32 11 12 1
33 11 42 1
34 11 43 1
35 12 13 1
36 12 44 1
37 12 45 1
38 13 14 1
39 13 46 1
40 13 47 1
41 14 15 1
42 14 48 1
43 14 49 1
44 15 16 1
45 15 20 1
46 15 50 1
47 16 51 1
48 16 52 1
49 16 53 1
50 17 18 1
51 17 19 1
52 17 108 1
53 18 54 1
54 18 55 1
55 18 56 1
56 19 57 1
57 19 58 1
58 19 59 1
59 17 20 1
60 60 83 1
61 60 145 1
62 61 62 1
63 61 103 1
64 61 122 1
65 62 63 1
66 62 123 1
67 62 124 1
68 63 65 1
69 63 109 1
70 63 125 1
71 64 65 1
72 64 126 1
73 64 127 1
74 65 68 1
75 65 110 1
76 66 67 1
77 66 111 2
78 67 128 1
79 67 129 1
80 67 130 1
81 68 69 1
82 68 103 1
83 68 131 1
84 69 77 1
85 69 112 1
86 69 132 1
87 70 71 1
88 70 113 2
89 71 72 1
90 71 76 2
91 72 73 2
92 72 133 1
93 73 74 1
94 73 134 1
95 74 75 2
96 74 135 1
97 75 76 1
98 75 136 1
99 76 137 1
100 77 78 1
101 77 105 1
102 77 114 1
103 78 79 1
104 78 139 1
105 78 140 1
106 79 96 1
107 79 115 1
108 79 141 1
109 80 81 1
110 80 116 2
111 81 82 1
112 81 117 1
113 81 142 1
114 60 82 1
115 82 90 1
116 82 144 1
117 83 84 1
118 83 118 2
119 84 85 1
120 84 89 2
121 85 86 2
122 85 146 1
123 86 87 1
124 86 147 1
125 87 88 2
126 87 148 1
127 88 89 1
128 88 149 1
129 89 150 1
130 90 91 1
131 90 95 2
132 91 92 2
133 91 151 1
134 92 93 1
135 92 152 1
136 93 94 2
137 93 153 1
138 94 95 1
139 94 154 1
140 95 155 1
141 96 97 1
142 96 98 2
143 97 156 1
144 97 157 1
145 97 158 1
146 98 99 1
147 98 105 1
148 99 102 1
149 99 119 1
150 99 159 1
151 100 101 1
152 100 120 2
153 101 160 1
154 101 161 1
155 101 162 1
156 102 103 1
157 102 121 2
158 103 104 1
159 104 163 1
160 104 164 1
161 104 165 1
162 105 106 1
163 105 107 1
164 106 166 1
165 106 167 1
166 106 168 1
167 107 169 1
168 107 170 1
169 107 171 1
170 61 108 1
171 64 109 1
172 66 110 1
173 70 112 1
174 114 138 1
175 80 115 1
176 117 143 1
177 100 119 1
@<TRIPOS>SUBSTRUCTURE
1	PTL1	1	GROUP	1 ****	PTL
2	PTX1	60	GROUP	1 ****	PTX
