# created with PyMOL 2.5.4
@<TRIPOS>MOLECULE
PTX
165 171 2               
SMALL
USER_CHARGES
@<TRIPOS>ATOM
1	   C	-2.992	17.492	-0.467	C.3	1	PTL1	0.000	
2	   C	-3.303	15.996	-0.322	C.3	1	PTL1	0.000	
3	   C	-2.073	15.199	0.144	C.3	1	PTL1	0.000	
4	   C	-2.379	13.699	0.289	C.3	1	PTL1	0.000	
5	   C	-1.148	12.904	0.754	C.3	1	PTL1	0.000	
6	   C	-1.450	11.403	0.892	C.3	1	PTL1	0.000	
7	   C	-0.216	10.609	1.350	C.3	1	PTL1	0.000	
8	   C	-0.511	9.105	1.478	C.3	1	PTL1	0.000	
9	   C	0.729	8.313	1.923	C.3	1	PTL1	0.000	
10	   C	0.445	6.806	2.032	C.3	1	PTL1	0.000	
11	   C	1.695	6.018	2.456	C.3	1	PTL1	0.000	
12	   C	1.428	4.507	2.537	C.3	1	PTL1	0.000	
13	   C	2.692	3.724	2.927	C.3	1	PTL1	0.000	
14	   C	2.446	2.215	2.960	C.3	1	PTL1	0.000	
15	   C	3.710	0.182	3.013	C.3	1	PTL1	0.000	
16	   C	5.049	-0.295	3.576	C.3	1	PTL1	0.000	
17	   C	2.563	-0.562	3.686	C.3	1	PTL1	0.000	
18	   O	3.659	1.573	3.271	O.3	1	PTL1	0.000	
19	   H	-3.892	18.056	-0.805	 H	1	PTL1	0.000	
20	   H	-2.663	17.929	0.503	 H	1	PTL1	0.000	
21	   H	-2.184	17.664	-1.214	 H	1	PTL1	0.000	
22	   H	-3.656	15.598	-1.304	 H	1	PTL1	0.000	
23	   H	-4.135	15.863	0.410	 H	1	PTL1	0.000	
24	   H	-1.724	15.602	1.125	 H	1	PTL1	0.000	
25	   H	-1.244	15.339	-0.589	 H	1	PTL1	0.000	
26	   H	-2.730	13.298	-0.692	 H	1	PTL1	0.000	
27	   H	-3.208	13.560	1.023	 H	1	PTL1	0.000	
28	   H	-0.799	13.303	1.736	 H	1	PTL1	0.000	
29	   H	-0.318	13.047	0.021	 H	1	PTL1	0.000	
30	   H	-1.801	11.005	-0.090	 H	1	PTL1	0.000	
31	   H	-2.277	11.257	1.627	 H	1	PTL1	0.000	
32	   H	0.132	11.002	2.335	 H	1	PTL1	0.000	
33	   H	0.613	10.761	0.618	 H	1	PTL1	0.000	
34	   H	-0.864	8.714	0.494	 H	1	PTL1	0.000	
35	   H	-1.335	8.949	2.214	 H	1	PTL1	0.000	
36	   H	1.078	8.696	2.912	 H	1	PTL1	0.000	
37	   H	1.554	8.480	1.191	 H	1	PTL1	0.000	
38	   H	0.088	6.427	1.045	 H	1	PTL1	0.000	
39	   H	-0.372	6.633	2.772	 H	1	PTL1	0.000	
40	   H	2.046	6.386	3.450	 H	1	PTL1	0.000	
41	   H	2.514	6.208	1.722	 H	1	PTL1	0.000	
42	   H	1.062	4.146	1.546	 H	1	PTL1	0.000	
43	   H	0.623	4.308	3.283	 H	1	PTL1	0.000	
44	   H	3.052	4.065	3.927	 H	1	PTL1	0.000	
45	   H	3.501	3.945	2.188	 H	1	PTL1	0.000	
46	   H	2.070	1.888	1.965	 H	1	PTL1	0.000	
47	   H	1.689	1.980	3.742	 H	1	PTL1	0.000	
48	   H	5.194	-1.392	3.475	 H	1	PTL1	0.000	
49	   H	5.127	-0.062	4.663	 H	1	PTL1	0.000	
50	   H	5.905	0.206	3.068	 H	1	PTL1	0.000	
51	   H	2.548	-0.344	4.779	 H	1	PTL1	0.000	
52	   H	1.561	-0.290	3.291	 H	1	PTL1	0.000	
53	   H	2.666	-1.665	3.588	 H	1	PTL1	0.000	
54	   N	4.441	-2.497	-0.886	N.pl3	2	PTX1	0.000	
55	   C	3.593	-1.169	1.010	C.3	2	PTX1	0.000	
56	   C	2.125	-1.562	0.785	C.2	2	PTX1	0.000	
57	   C	0.803	-3.542	0.422	C.3	2	PTX1	0.000	
58	   C	-0.173	-2.891	-0.576	C.3	2	PTX1	0.000	
59	   C	-1.036	-3.937	-1.304	C.3	2	PTX1	0.000	
60	   C	-2.049	-4.524	-0.283	C.3	2	PTX1	0.000	
61	   C	-2.926	-2.989	1.419	C.2	2	PTX1	0.000	
62	   C	-3.781	-1.967	1.734	C.2	2	PTX1	0.000	
63	   C	-3.839	-1.440	2.973	C.2	2	PTX1	0.000	
64	   C	-4.688	-0.439	3.257	C.2	2	PTX1	0.000	
65	   C	-5.496	0.053	2.308	C.2	2	PTX1	0.000	
66	   C	-5.449	-0.462	1.071	C.2	2	PTX1	0.000	
67	   C	-4.599	-1.462	0.789	C.2	2	PTX1	0.000	
68	   C	-2.872	-5.765	-0.714	C.3	2	PTX1	0.000	
69	   C	-2.382	-7.144	-0.137	C.3	2	PTX1	0.000	
70	   C	-1.878	-7.104	1.325	C.3	2	PTX1	0.000	
71	   C	-1.216	-7.643	-1.049	C.2	2	PTX1	0.000	
72	   C	0.277	-7.255	-0.866	C.3	2	PTX1	0.000	
73	   C	1.105	-9.292	0.125	C.2	2	PTX1	0.000	
74	   C	1.656	-9.802	1.442	C.3	2	PTX1	0.000	
75	   C	0.469	-5.742	-0.787	C.2	2	PTX1	0.000	
76	   C	1.003	-5.055	0.254	C.2	2	PTX1	0.000	
77	   C	1.740	-5.669	1.428	C.3	2	PTX1	0.000	
78	   C	-0.037	-4.919	-1.972	C.3	2	PTX1	0.000	
79	   C	1.232	-4.247	-2.587	C.3	2	PTX1	0.000	
80	   C	-0.562	-5.643	-3.243	C.3	2	PTX1	0.000	
81	   C	-3.512	-8.214	-0.180	C.3	2	PTX1	0.000	
82	   C	-4.549	-8.007	-1.279	C.3	2	PTX1	0.000	
83	   C	-5.282	-6.684	-1.151	C.3	2	PTX1	0.000	
84	   C	-5.199	-5.437	0.446	C.3	2	PTX1	0.000	
85	   C	-4.383	-5.483	-0.849	C.3	2	PTX1	0.000	
86	   C	-5.784	-3.865	-2.055	C.2	2	PTX1	0.000	
87	   C	-5.563	-2.774	-3.087	C.3	2	PTX1	0.000	
88	   C	4.394	-1.144	-0.314	C.3	2	PTX1	0.000	
89	   C	4.851	-2.894	-2.131	C.2	2	PTX1	0.000	
90	   C	5.409	-2.088	-3.083	C.2	2	PTX1	0.000	
91	   C	5.226	-2.380	-4.389	C.2	2	PTX1	0.000	
92	   C	5.742	-1.613	-5.362	C.2	2	PTX1	0.000	
93	   C	6.470	-0.531	-5.053	C.2	2	PTX1	0.000	
94	   C	6.685	-0.237	-3.764	C.2	2	PTX1	0.000	
95	   C	6.165	-1.011	-2.798	C.2	2	PTX1	0.000	
96	   C	3.771	-0.128	-1.256	C.2	2	PTX1	0.000	
97	   C	2.779	-0.455	-2.103	C.2	2	PTX1	0.000	
98	   C	2.233	0.455	-2.925	C.2	2	PTX1	0.000	
99	   C	2.673	1.721	-2.908	C.2	2	PTX1	0.000	
100	   C	3.658	2.068	-2.066	C.2	2	PTX1	0.000	
101	   C	4.196	1.149	-1.249	C.2	2	PTX1	0.000	
102	   O	3.737	0.103	1.605	O.3	2	PTX1	0.000	
103	   O	1.181	-0.811	0.883	O.co2	2	PTX1	0.000	
104	   O	2.052	-2.892	0.502	O.3	2	PTX1	0.000	
105	   O	-1.788	-3.281	-2.288	O.3	2	PTX1	0.000	
106	   O	-2.907	-3.493	0.137	O.3	2	PTX1	0.000	
107	   O	-2.187	-3.451	2.267	O.co2	2	PTX1	0.000	
108	   O	-1.482	-8.353	-1.997	O.2	2	PTX1	0.000	
109	   O	0.834	-7.961	0.229	O.3	2	PTX1	0.000	
110	   O	0.930	-9.971	-0.860	O.co2	2	PTX1	0.000	
111	   O	-4.197	-8.285	1.053	O.3	2	PTX1	0.000	
112	   O	-5.977	-6.560	0.069	O.3	2	PTX1	0.000	
113	   O	-4.587	-4.443	-1.761	O.3	2	PTX1	0.000	
114	   O	-6.864	-4.145	-1.590	O.co2	2	PTX1	0.000	
115	   O	4.522	-4.027	-2.400	O.2	2	PTX1	0.000	
116	   H	4.059	-1.936	1.670	 H	2	PTX1	0.000	
117	   H	0.338	-3.442	1.435	 H	2	PTX1	0.000	
118	   H	-0.827	-2.149	-0.066	 H	2	PTX1	0.000	
119	   H	0.364	-2.266	-1.322	 H	2	PTX1	0.000	
120	   H	-2.373	-2.649	-1.859	 H	2	PTX1	0.000	
121	   H	-1.457	-4.841	0.586	 H	2	PTX1	0.000	
122	   H	-3.200	-1.802	3.796	 H	2	PTX1	0.000	
123	   H	-4.723	-0.018	4.276	 H	2	PTX1	0.000	
124	   H	-6.194	0.874	2.542	 H	2	PTX1	0.000	
125	   H	-6.112	-0.062	0.285	 H	2	PTX1	0.000	
126	   H	-4.603	-1.846	-0.244	 H	2	PTX1	0.000	
127	   H	-2.694	-5.865	-1.804	 H	2	PTX1	0.000	
128	   H	-2.598	-6.597	2.005	 H	2	PTX1	0.000	
129	   H	-1.693	-8.130	1.717	 H	2	PTX1	0.000	
130	   H	-0.923	-6.570	1.470	 H	2	PTX1	0.000	
131	   H	0.853	-7.560	-1.771	 H	2	PTX1	0.000	
132	   H	0.914	-9.643	2.258	 H	2	PTX1	0.000	
133	   H	1.878	-10.891	1.383	 H	2	PTX1	0.000	
134	   H	2.599	-9.268	1.700	 H	2	PTX1	0.000	
135	   H	1.051	-6.131	2.167	 H	2	PTX1	0.000	
136	   H	2.505	-6.404	1.094	 H	2	PTX1	0.000	
137	   H	2.331	-4.915	1.991	 H	2	PTX1	0.000	
138	   H	0.969	-3.477	-3.348	 H	2	PTX1	0.000	
139	   H	1.911	-3.766	-1.859	 H	2	PTX1	0.000	
140	   H	1.893	-4.993	-3.085	 H	2	PTX1	0.000	
141	   H	-0.784	-4.912	-4.053	 H	2	PTX1	0.000	
142	   H	0.182	-6.357	-3.661	 H	2	PTX1	0.000	
143	   H	-1.489	-6.229	-3.161	 H	2	PTX1	0.000	
144	   H	-3.066	-9.233	-0.291	 H	2	PTX1	0.000	
145	   H	-5.136	-8.420	0.910	 H	2	PTX1	0.000	
146	   H	-4.063	-8.038	-2.281	 H	2	PTX1	0.000	
147	   H	-5.293	-8.839	-1.263	 H	2	PTX1	0.000	
148	   H	-5.995	-6.538	-1.993	 H	2	PTX1	0.000	
149	   H	-5.834	-4.543	0.610	 H	2	PTX1	0.000	
150	   H	-4.610	-5.668	1.357	 H	2	PTX1	0.000	
151	   H	-4.801	-2.043	-2.733	 H	2	PTX1	0.000	
152	   H	-5.217	-3.219	-4.047	 H	2	PTX1	0.000	
153	   H	-6.508	-2.217	-3.283	 H	2	PTX1	0.000	
154	   H	5.433	-0.864	-0.021	 H	2	PTX1	0.000	
155	   H	4.018	-3.253	-0.346	 H	2	PTX1	0.000	
156	   H	4.624	-3.246	-4.713	 H	2	PTX1	0.000	
157	   H	5.565	-1.868	-6.421	 H	2	PTX1	0.000	
158	   H	6.899	0.100	-5.849	 H	2	PTX1	0.000	
159	   H	7.306	0.635	-3.499	 H	2	PTX1	0.000	
160	   H	6.430	-0.737	-1.770	 H	2	PTX1	0.000	
161	   H	2.396	-1.486	-2.137	 H	2	PTX1	0.000	
162	   H	1.422	0.161	-3.612	 H	2	PTX1	0.000	
163	   H	2.227	2.473	-3.581	 H	2	PTX1	0.000	
164	   H	4.023	3.108	-2.044	 H	2	PTX1	0.000	
165	   H	5.003	1.457	-0.563	 H	2	PTX1	0.000	
@<TRIPOS>BOND
1 1 2 1
2 1 19 1
3 1 20 1
4 1 21 1
5 2 3 1
6 2 22 1
7 2 23 1
8 3 4 1
9 3 24 1
10 3 25 1
11 4 5 1
12 4 26 1
13 4 27 1
14 5 6 1
15 5 28 1
16 5 29 1
17 6 7 1
18 6 30 1
19 6 31 1
20 7 8 1
21 7 32 1
22 7 33 1
23 8 9 1
24 8 34 1
25 8 35 1
26 9 10 1
27 9 36 1
28 9 37 1
29 10 11 1
30 10 38 1
31 10 39 1
32 11 12 1
33 11 40 1
34 11 41 1
35 12 13 1
36 12 42 1
37 12 43 1
38 13 14 1
39 13 44 1
40 13 45 1
41 14 18 1
42 14 46 1
43 14 47 1
44 15 16 1
45 15 17 1
46 15 102 1
47 16 48 1
48 16 49 1
49 16 50 1
50 17 51 1
51 17 52 1
52 17 53 1
53 15 18 1
54 54 89 1
55 54 155 1
56 55 56 1
57 55 88 1
58 55 116 1
59 56 103 2
60 56 104 1
61 57 58 1
62 57 76 1
63 57 117 1
64 58 59 1
65 58 118 1
66 58 119 1
67 59 60 1
68 59 78 1
69 59 105 1
70 60 68 1
71 60 106 1
72 60 121 1
73 61 62 1
74 61 107 2
75 62 63 1
76 62 67 2
77 63 64 2
78 63 122 1
79 64 65 1
80 64 123 1
81 65 66 2
82 65 124 1
83 66 67 1
84 66 125 1
85 67 126 1
86 68 69 1
87 68 85 1
88 68 127 1
89 69 70 1
90 69 71 1
91 69 81 1
92 70 128 1
93 70 129 1
94 70 130 1
95 71 72 1
96 71 108 2
97 72 75 1
98 72 109 1
99 72 131 1
100 73 74 1
101 73 110 2
102 74 132 1
103 74 133 1
104 74 134 1
105 75 76 2
106 75 78 1
107 76 77 1
108 77 135 1
109 77 136 1
110 77 137 1
111 78 79 1
112 78 80 1
113 79 138 1
114 79 139 1
115 79 140 1
116 80 141 1
117 80 142 1
118 80 143 1
119 81 82 1
120 81 111 1
121 81 144 1
122 82 83 1
123 82 146 1
124 82 147 1
125 83 85 1
126 83 112 1
127 83 148 1
128 84 85 1
129 84 149 1
130 84 150 1
131 85 113 1
132 86 87 1
133 86 114 2
134 87 151 1
135 87 152 1
136 87 153 1
137 54 88 1
138 88 96 1
139 88 154 1
140 89 90 1
141 89 115 2
142 90 91 1
143 90 95 2
144 91 92 2
145 91 156 1
146 92 93 1
147 92 157 1
148 93 94 2
149 93 158 1
150 94 95 1
151 94 159 1
152 95 160 1
153 96 97 1
154 96 101 2
155 97 98 2
156 97 161 1
157 98 99 1
158 98 162 1
159 99 100 2
160 99 163 1
161 100 101 1
162 100 164 1
163 101 165 1
164 55 102 1
165 57 104 1
166 105 120 1
167 61 106 1
168 73 109 1
169 111 145 1
170 84 112 1
171 86 113 1
@<TRIPOS>SUBSTRUCTURE
1	PTL1	1	GROUP	1 ****	PTL
2	PTX1	54	GROUP	1 ****	PTX
