@<TRIPOS>MOLECULE
PTX 
165 171 0 0 0
SMALL
USER_CHARGES
#CGenFF output mol2 file
@<TRIPOS>ATOM
1	C1    -2.9920    17.4920    -0.4670	C.3	1	PTX1    -0.2730
2	C2    -3.3030    15.9960    -0.3220	C.3	1	PTX1    -0.1770
3	C3    -2.0730    15.1990     0.1440	C.3	1	PTX1    -0.1810
4	C4    -2.3790    13.6990     0.2890	C.3	1	PTX1    -0.1790
5	C5    -1.1480    12.9040     0.7540	C.3	1	PTX1    -0.1800
6	C6    -1.4500    11.4030     0.8920	C.3	1	PTX1    -0.1800
7	C7    -0.2160    10.6090     1.3500	C.3	1	PTX1    -0.1800
8	C8    -0.5110     9.1050     1.4780	C.3	1	PTX1    -0.1800
9	C9     0.7290     8.3130     1.9230	C.3	1	PTX1    -0.1800
10	C10     0.4450     6.8060     2.0320	C.3	1	PTX1    -0.1800
11	C11     1.6950     6.0180     2.4560	C.3	1	PTX1    -0.1800
12	C12     1.4280     4.5070     2.5370	C.3	1	PTX1    -0.1800
13	C13     2.6920     3.7240     2.9270	C.3	1	PTX1    -0.1800
14	C14     2.4460     2.2150     2.9600	C.3	1	PTX1     0.0360
15	C15     3.7100     0.1820     3.0130	C.3	1	PTX1     0.3910
16	C16     5.0490    -0.2950     3.5760	C.3	1	PTX1    -0.2690
17	C17     2.5630    -0.5620     3.6860	C.3	1	PTX1    -0.2690
18	O1     3.6590     1.5730     3.2710	O.3	1	PTX1    -0.4020
19	H1    -3.8920    18.0560    -0.8050	H	1	PTX1     0.0900
20	H2    -2.6630    17.9290     0.5030	H	1	PTX1     0.0900
21	H3    -2.1840    17.6640    -1.2140	H	1	PTX1     0.0900
22	H4    -3.6560    15.5980    -1.3040	H	1	PTX1     0.0900
23	H5    -4.1350    15.8630     0.4100	H	1	PTX1     0.0900
24	H6    -1.7240    15.6020     1.1250	H	1	PTX1     0.0900
25	H7    -1.2440    15.3390    -0.5890	H	1	PTX1     0.0900
26	H8    -2.7300    13.2980    -0.6920	H	1	PTX1     0.0900
27	H9    -3.2080    13.5600     1.0230	H	1	PTX1     0.0900
28	H10    -0.7990    13.3030     1.7360	H	1	PTX1     0.0900
29	H11    -0.3180    13.0470     0.0210	H	1	PTX1     0.0900
30	H12    -1.8010    11.0050    -0.0900	H	1	PTX1     0.0900
31	H13    -2.2770    11.2570     1.6270	H	1	PTX1     0.0900
32	H14     0.1320    11.0020     2.3350	H	1	PTX1     0.0900
33	H15     0.6130    10.7610     0.6180	H	1	PTX1     0.0900
34	H16    -0.8640     8.7140     0.4940	H	1	PTX1     0.0900
35	H17    -1.3350     8.9490     2.2140	H	1	PTX1     0.0900
36	H18     1.0780     8.6960     2.9120	H	1	PTX1     0.0900
37	H19     1.5540     8.4800     1.1910	H	1	PTX1     0.0900
38	H20     0.0880     6.4270     1.0450	H	1	PTX1     0.0900
39	H21    -0.3720     6.6330     2.7720	H	1	PTX1     0.0900
40	H22     2.0460     6.3860     3.4500	H	1	PTX1     0.0900
41	H23     2.5140     6.2080     1.7220	H	1	PTX1     0.0900
42	H24     1.0620     4.1460     1.5460	H	1	PTX1     0.0900
43	H25     0.6230     4.3080     3.2830	H	1	PTX1     0.0900
44	H26     3.0520     4.0650     3.9270	H	1	PTX1     0.0900
45	H27     3.5010     3.9450     2.1880	H	1	PTX1     0.0900
46	H28     2.0700     1.8880     1.9650	H	1	PTX1     0.0900
47	H29     1.6890     1.9800     3.7420	H	1	PTX1     0.0900
48	H30     5.1940    -1.3920     3.4750	H	1	PTX1     0.0900
49	H31     5.1270    -0.0620     4.6630	H	1	PTX1     0.0900
50	H32     5.9050     0.2060     3.0680	H	1	PTX1     0.0900
51	H33     2.5480    -0.3440     4.7790	H	1	PTX1     0.0900
52	H34     1.5610    -0.2900     3.2910	H	1	PTX1     0.0900
53	H35     2.6660    -1.6650     3.5880	H	1	PTX1     0.0900
54	N     4.4410    -2.4970    -0.8860	N.pl3	1	PTX1    -0.4040
55	C18     3.5930    -1.1690     1.0100	C.3	1	PTX1     0.1830
56	C19     2.1250    -1.5620     0.7850	C.2	1	PTX1     0.8500
57	C20     0.8030    -3.5420     0.4220	C.3	1	PTX1     0.2720
58	C21    -0.1730    -2.8910    -0.5760	C.3	1	PTX1    -0.2120
59	C22    -1.0360    -3.9370    -1.3040	C.3	1	PTX1     0.1860
60	C23    -2.0490    -4.5240    -0.2830	C.3	1	PTX1     0.1330
61	C24    -2.9260    -2.9890     1.4190	C.2	1	PTX1     0.4590
62	C25    -3.7810    -1.9670     1.7340	C.2	1	PTX1     0.0860
63	C26    -3.8390    -1.4400     2.9730	C.2	1	PTX1    -0.1100
64	C27    -4.6880    -0.4390     3.2570	C.2	1	PTX1    -0.1140
65	C28    -5.4960     0.0530     2.3080	C.2	1	PTX1    -0.1150
66	C29    -5.4490    -0.4620     1.0710	C.2	1	PTX1    -0.1140
67	C30    -4.5990    -1.4620     0.7890	C.2	1	PTX1    -0.1100
68	C31    -2.8720    -5.7650    -0.7140	C.3	1	PTX1    -0.0740
69	C32    -2.3820    -7.1440    -0.1370	C.3	1	PTX1     0.0810
70	C33    -1.8780    -7.1040     1.3250	C.3	1	PTX1    -0.2630
71	C34    -1.2160    -7.6430    -1.0490	C.2	1	PTX1     0.2970
72	C35     0.2770    -7.2550    -0.8660	C.3	1	PTX1     0.4320
73	C36     1.1050    -9.2920     0.1250	C.2	1	PTX1     0.8340
74	C37     1.6560    -9.8020     1.4420	C.3	1	PTX1    -0.3110
75	C38     0.4690    -5.7420    -0.7870	C.2	1	PTX1    -0.1130
76	C39     1.0030    -5.0550     0.2540	C.2	1	PTX1    -0.1530
77	C40     1.7400    -5.6690     1.4280	C.3	1	PTX1    -0.2650
78	C41    -0.0370    -4.9190    -1.9720	C.3	1	PTX1     0.0160
79	C42     1.2320    -4.2470    -2.5870	C.3	1	PTX1    -0.2690
80	C43    -0.5620    -5.6430    -3.2430	C.3	1	PTX1    -0.2690
81	C44    -3.5120    -8.2140    -0.1800	C.3	1	PTX1     0.1660
82	C45    -4.5490    -8.0070    -1.2790	C.3	1	PTX1    -0.2010
83	C46    -5.2820    -6.6840    -1.1510	C.3	1	PTX1     0.0150
84	C47    -5.1990    -5.4370     0.4460	C.3	1	PTX1    -0.1060
85	C48    -4.3830    -5.4830    -0.8490	C.3	1	PTX1     0.3660
86	C49    -5.7840    -3.8650    -2.0550	C.2	1	PTX1     0.8850
87	C50    -5.5630    -2.7740    -3.0870	C.3	1	PTX1    -0.3130
88	C51     4.3940    -1.1440    -0.3140	C.3	1	PTX1     0.1270
89	C52     4.8510    -2.8940    -2.1310	C.2	1	PTX1     0.3410
90	C53     5.4090    -2.0880    -3.0830	C.2	1	PTX1    -0.1370
91	C54     5.2260    -2.3800    -4.3890	C.2	1	PTX1    -0.0240
92	C55     5.7420    -1.6130    -5.3620	C.2	1	PTX1    -0.1090
93	C56     6.4700    -0.5310    -5.0530	C.2	1	PTX1    -0.1150
94	C57     6.6850    -0.2370    -3.7640	C.2	1	PTX1    -0.1090
95	C58     6.1650    -1.0110    -2.7980	C.2	1	PTX1    -0.0240
96	C59     3.7710    -0.1280    -1.2560	C.2	1	PTX1    -0.0400
97	C60     2.7790    -0.4550    -2.1030	C.2	1	PTX1    -0.1060
98	C61     2.2330     0.4550    -2.9250	C.2	1	PTX1    -0.1150
99	C62     2.6730     1.7210    -2.9080	C.2	1	PTX1    -0.1150
100	C63     3.6580     2.0680    -2.0660	C.2	1	PTX1    -0.1150
101	C64     4.1960     1.1490    -1.2490	C.2	1	PTX1    -0.1060
102	O2     3.7370     0.1030     1.6050	O.3	1	PTX1    -0.5060
103	O3     1.1810    -0.8110     0.8830	O.co2	1	PTX1    -0.6230
104	O4     2.0520    -2.8920     0.5020	O.3	1	PTX1    -0.4320
105	O5    -1.7880    -3.2810    -2.2880	O.3	1	PTX1    -0.4600
106	O6    -2.9070    -3.4930     0.1370	O.3	1	PTX1    -0.3100
107	O7    -2.1870    -3.4510     2.2670	O.co2	1	PTX1    -0.4960
108	O8    -1.4820    -8.3530    -1.9970	O.2	1	PTX1    -0.5150
109	O9     0.8340    -7.9610     0.2290	O.3	1	PTX1    -0.4270
110	O10     0.9300    -9.9710    -0.8600	O.co2	1	PTX1    -0.6250
111	O11    -4.1970    -8.2850     1.0530	O.3	1	PTX1    -0.6420
112	O12    -5.9770    -6.5600     0.0690	O.3	1	PTX1    -0.3430
113	O13    -4.5870    -4.4430    -1.7610	O.3	1	PTX1    -0.4220
114	O14    -6.8640    -4.1450    -1.5900	O.co2	1	PTX1    -0.6170
115	O15     4.5220    -4.0270    -2.4000	O.2	1	PTX1    -0.4580
116	H36     4.0590    -1.9360     1.6700	H	1	PTX1     0.0900
117	H37     0.3380    -3.4420     1.4350	H	1	PTX1     0.0900
118	H38    -0.8270    -2.1490    -0.0660	H	1	PTX1     0.0900
119	H39     0.3640    -2.2660    -1.3220	H	1	PTX1     0.0900
120	H40    -2.3730    -2.6490    -1.8590	H	1	PTX1     0.2920
121	H41    -1.4570    -4.8410     0.5860	H	1	PTX1     0.0900
122	H42    -3.2000    -1.8020     3.7960	H	1	PTX1     0.1150
123	H43    -4.7230    -0.0180     4.2760	H	1	PTX1     0.1150
124	H44    -6.1940     0.8740     2.5420	H	1	PTX1     0.1150
125	H45    -6.1120    -0.0620     0.2850	H	1	PTX1     0.1150
126	H46    -4.6030    -1.8460    -0.2440	H	1	PTX1     0.1150
127	H47    -2.6940    -5.8650    -1.8040	H	1	PTX1     0.0900
128	H48    -2.5980    -6.5970     2.0050	H	1	PTX1     0.0900
129	H49    -1.6930    -8.1300     1.7170	H	1	PTX1     0.0900
130	H50    -0.9230    -6.5700     1.4700	H	1	PTX1     0.0900
131	H51     0.8530    -7.5600    -1.7710	H	1	PTX1     0.0900
132	H52     0.9140    -9.6430     2.2580	H	1	PTX1     0.0900
133	H53     1.8780   -10.8910     1.3830	H	1	PTX1     0.0900
134	H54     2.5990    -9.2680     1.7000	H	1	PTX1     0.0900
135	H55     1.0510    -6.1310     2.1670	H	1	PTX1     0.0900
136	H56     2.5050    -6.4040     1.0940	H	1	PTX1     0.0900
137	H57     2.3310    -4.9150     1.9910	H	1	PTX1     0.0900
138	H58     0.9690    -3.4770    -3.3480	H	1	PTX1     0.0900
139	H59     1.9110    -3.7660    -1.8590	H	1	PTX1     0.0900
140	H60     1.8930    -4.9930    -3.0850	H	1	PTX1     0.0900
141	H61    -0.7840    -4.9120    -4.0530	H	1	PTX1     0.0900
142	H62     0.1820    -6.3570    -3.6610	H	1	PTX1     0.0900
143	H63    -1.4890    -6.2290    -3.1610	H	1	PTX1     0.0900
144	H64    -3.0660    -9.2330    -0.2910	H	1	PTX1     0.0900
145	H65    -5.1360    -8.4200     0.9100	H	1	PTX1     0.4000
146	H66    -4.0630    -8.0380    -2.2810	H	1	PTX1     0.0900
147	H67    -5.2930    -8.8390    -1.2630	H	1	PTX1     0.0900
148	H68    -5.9950    -6.5380    -1.9930	H	1	PTX1     0.0900
149	H69    -5.8340    -4.5430     0.6100	H	1	PTX1     0.0900
150	H70    -4.6100    -5.6680     1.3570	H	1	PTX1     0.0900
151	H71    -4.8010    -2.0430    -2.7330	H	1	PTX1     0.0900
152	H72    -5.2170    -3.2190    -4.0470	H	1	PTX1     0.0900
153	H73    -6.5080    -2.2170    -3.2830	H	1	PTX1     0.0900
154	H74     5.4330    -0.8640    -0.0210	H	1	PTX1     0.0900
155	H75     4.0180    -3.2530    -0.3460	H	1	PTX1     0.2740
156	H76     4.6240    -3.2460    -4.7130	H	1	PTX1     0.1150
157	H77     5.5650    -1.8680    -6.4210	H	1	PTX1     0.1150
158	H78     6.8990     0.1000    -5.8490	H	1	PTX1     0.1150
159	H79     7.3060     0.6350    -3.4990	H	1	PTX1     0.1150
160	H80     6.4300    -0.7370    -1.7700	H	1	PTX1     0.1150
161	H81     2.3960    -1.4860    -2.1370	H	1	PTX1     0.1150
162	H82     1.4220     0.1610    -3.6120	H	1	PTX1     0.1150
163	H83     2.2270     2.4730    -3.5810	H	1	PTX1     0.1150
164	H84     4.0230     3.1080    -2.0440	H	1	PTX1     0.1150
165	H85     5.0030     1.4570    -0.5630	H	1	PTX1     0.1150
@<TRIPOS>BOND
1	1	2	1
2	1	19	1
3	1	20	1
4	1	21	1
5	2	3	1
6	2	22	1
7	2	23	1
8	3	4	1
9	3	24	1
10	3	25	1
11	4	5	1
12	4	26	1
13	4	27	1
14	5	6	1
15	5	28	1
16	5	29	1
17	6	7	1
18	6	30	1
19	6	31	1
20	7	8	1
21	7	32	1
22	7	33	1
23	8	9	1
24	8	34	1
25	8	35	1
26	9	10	1
27	9	36	1
28	9	37	1
29	10	11	1
30	10	38	1
31	10	39	1
32	11	12	1
33	11	40	1
34	11	41	1
35	12	13	1
36	12	42	1
37	12	43	1
38	13	14	1
39	13	44	1
40	13	45	1
41	14	18	1
42	14	46	1
43	14	47	1
44	15	16	1
45	15	17	1
46	15	102	1
47	16	48	1
48	16	49	1
49	16	50	1
50	17	51	1
51	17	52	1
52	17	53	1
53	15	18	1
54	54	89	1
55	54	155	1
56	55	56	1
57	55	88	1
58	55	116	1
59	56	103	2
60	56	104	1
61	57	58	1
62	57	76	1
63	57	117	1
64	58	59	1
65	58	118	1
66	58	119	1
67	59	60	1
68	59	78	1
69	59	105	1
70	60	68	1
71	60	106	1
72	60	121	1
73	61	62	1
74	61	107	2
75	62	63	1
76	62	67	2
77	63	64	2
78	63	122	1
79	64	65	1
80	64	123	1
81	65	66	2
82	65	124	1
83	66	67	1
84	66	125	1
85	67	126	1
86	68	69	1
87	68	85	1
88	68	127	1
89	69	70	1
90	69	71	1
91	69	81	1
92	70	128	1
93	70	129	1
94	70	130	1
95	71	72	1
96	71	108	2
97	72	75	1
98	72	109	1
99	72	131	1
100	73	74	1
101	73	110	2
102	74	132	1
103	74	133	1
104	74	134	1
105	75	76	2
106	75	78	1
107	76	77	1
108	77	135	1
109	77	136	1
110	77	137	1
111	78	79	1
112	78	80	1
113	79	138	1
114	79	139	1
115	79	140	1
116	80	141	1
117	80	142	1
118	80	143	1
119	81	82	1
120	81	111	1
121	81	144	1
122	82	83	1
123	82	146	1
124	82	147	1
125	83	85	1
126	83	112	1
127	83	148	1
128	84	85	1
129	84	149	1
130	84	150	1
131	85	113	1
132	86	87	1
133	86	114	2
134	87	151	1
135	87	152	1
136	87	153	1
137	54	88	1
138	88	96	1
139	88	154	1
140	89	90	1
141	89	115	2
142	90	91	1
143	90	95	2
144	91	92	2
145	91	156	1
146	92	93	1
147	92	157	1
148	93	94	2
149	93	158	1
150	94	95	1
151	94	159	1
152	95	160	1
153	96	97	1
154	96	101	2
155	97	98	2
156	97	161	1
157	98	99	1
158	98	162	1
159	99	100	2
160	99	163	1
161	100	101	1
162	100	164	1
163	101	165	1
164	55	102	1
165	57	104	1
166	105	120	1
167	61	106	1
168	73	109	1
169	111	145	1
170	84	112	1
171	86	113	1
