# created with PyMOL 2.5.4
@<TRIPOS>MOLECULE
CBZ
180 185 2               
SMALL
USER_CHARGES
@<TRIPOS>ATOM
1	   C	-2.164	12.361	13.944	C.3	1	CBL1	0.000	
2	   C	-0.921	11.835	13.214	C.3	1	CBL1	0.000	
3	   C	-1.288	10.825	12.115	C.3	1	CBL1	0.000	
4	   C	-0.047	10.297	11.378	C.3	1	CBL1	0.000	
5	   C	-0.418	9.290	10.277	C.3	1	CBL1	0.000	
6	   C	0.820	8.764	9.533	C.3	1	CBL1	0.000	
7	   C	0.440	7.766	8.427	C.3	1	CBL1	0.000	
8	   C	1.670	7.243	7.667	C.3	1	CBL1	0.000	
9	   C	1.274	6.260	6.553	C.3	1	CBL1	0.000	
10	   C	2.492	5.742	5.770	C.3	1	CBL1	0.000	
11	   C	2.073	4.781	4.645	C.3	1	CBL1	0.000	
12	   C	3.272	4.269	3.831	C.3	1	CBL1	0.000	
13	   C	2.821	3.338	2.693	C.3	1	CBL1	0.000	
14	   C	3.995	2.829	1.841	C.3	1	CBL1	0.000	
15	   C	3.502	1.938	0.689	C.3	1	CBL1	0.000	
16	   C	4.645	1.430	-0.205	C.3	1	CBL1	0.000	
17	   C	4.102	0.585	-1.369	C.3	1	CBL1	0.000	
18	   C	5.203	0.073	-2.299	C.3	1	CBL1	0.000	
19	   C	5.436	-1.361	-4.207	C.3	1	CBL1	0.000	
20	   C	4.510	-1.892	-5.302	C.3	1	CBL1	0.000	
21	   C	6.536	-0.487	-4.799	C.3	1	CBL1	0.000	
22	   O	4.583	-0.636	-3.343	O.3	1	CBL1	0.000	
23	   H	-1.883	13.092	14.737	 H	1	CBL1	0.000	
24	   H	-2.856	12.877	13.239	 H	1	CBL1	0.000	
25	   H	-2.725	11.532	14.431	 H	1	CBL1	0.000	
26	   H	-0.238	11.352	13.953	 H	1	CBL1	0.000	
27	   H	-0.369	12.695	12.762	 H	1	CBL1	0.000	
28	   H	-1.974	11.313	11.381	 H	1	CBL1	0.000	
29	   H	-1.841	9.970	12.570	 H	1	CBL1	0.000	
30	   H	0.638	9.808	12.111	 H	1	CBL1	0.000	
31	   H	0.506	11.154	10.925	 H	1	CBL1	0.000	
32	   H	-1.107	9.780	9.548	 H	1	CBL1	0.000	
33	   H	-0.969	8.432	10.732	 H	1	CBL1	0.000	
34	   H	1.507	8.268	10.259	 H	1	CBL1	0.000	
35	   H	1.372	9.622	9.082	 H	1	CBL1	0.000	
36	   H	-0.254	8.262	7.707	 H	1	CBL1	0.000	
37	   H	-0.109	6.905	8.879	 H	1	CBL1	0.000	
38	   H	2.361	6.736	8.382	 H	1	CBL1	0.000	
39	   H	2.222	8.104	7.221	 H	1	CBL1	0.000	
40	   H	0.574	6.768	5.849	 H	1	CBL1	0.000	
41	   H	0.728	5.396	7.000	 H	1	CBL1	0.000	
42	   H	3.189	5.218	6.467	 H	1	CBL1	0.000	
43	   H	3.044	6.607	5.331	 H	1	CBL1	0.000	
44	   H	1.364	5.307	3.962	 H	1	CBL1	0.000	
45	   H	1.528	3.913	5.086	 H	1	CBL1	0.000	
46	   H	3.975	3.722	4.503	 H	1	CBL1	0.000	
47	   H	3.826	5.137	3.401	 H	1	CBL1	0.000	
48	   H	2.104	3.888	2.037	 H	1	CBL1	0.000	
49	   H	2.274	2.466	3.125	 H	1	CBL1	0.000	
50	   H	4.703	2.254	2.483	 H	1	CBL1	0.000	
51	   H	4.553	3.700	1.421	 H	1	CBL1	0.000	
52	   H	2.781	2.517	0.065	 H	1	CBL1	0.000	
53	   H	2.949	1.064	1.111	 H	1	CBL1	0.000	
54	   H	5.355	0.821	0.402	 H	1	CBL1	0.000	
55	   H	5.212	2.300	-0.613	 H	1	CBL1	0.000	
56	   H	3.381	1.198	-1.962	 H	1	CBL1	0.000	
57	   H	3.536	-0.286	-0.959	 H	1	CBL1	0.000	
58	   H	5.894	-0.589	-1.731	 H	1	CBL1	0.000	
59	   H	5.765	0.940	-2.715	 H	1	CBL1	0.000	
60	   H	5.034	-2.454	-6.105	 H	1	CBL1	0.000	
61	   H	3.992	-1.048	-5.813	 H	1	CBL1	0.000	
62	   H	3.716	-2.549	-4.880	 H	1	CBL1	0.000	
63	   H	6.109	0.436	-5.251	 H	1	CBL1	0.000	
64	   H	7.295	-0.183	-4.044	 H	1	CBL1	0.000	
65	   H	7.089	-1.015	-5.607	 H	1	CBL1	0.000	
66	   N	6.447	-5.882	-4.474	N.pl3	2	CBZ1	0.000	
67	   C	6.596	-3.470	-4.039	C.3	2	CBZ1	0.000	
68	   C	8.028	-3.664	-3.514	C.2	2	CBZ1	0.000	
69	   C	10.029	-2.325	-3.122	C.3	2	CBZ1	0.000	
70	   C	10.206	-1.581	-1.784	C.3	2	CBZ1	0.000	
71	   C	11.509	-1.997	-1.069	C.3	2	CBZ1	0.000	
72	   C	12.704	-1.380	-1.844	C.3	2	CBZ1	0.000	
73	   C	12.406	0.866	-2.792	C.2	2	CBZ1	0.000	
74	   C	12.407	2.220	-2.591	C.2	2	CBZ1	0.000	
75	   C	12.208	3.092	-3.599	C.2	2	CBZ1	0.000	
76	   C	12.216	4.417	-3.376	C.2	2	CBZ1	0.000	
77	   C	12.424	4.894	-2.141	C.2	2	CBZ1	0.000	
78	   C	12.622	4.038	-1.128	C.2	2	CBZ1	0.000	
79	   C	12.611	2.715	-1.354	C.2	2	CBZ1	0.000	
80	   C	14.130	-1.869	-1.477	C.3	2	CBZ1	0.000	
81	   C	14.796	-2.892	-2.472	C.3	2	CBZ1	0.000	
82	   C	14.465	-2.653	-3.964	C.3	2	CBZ1	0.000	
83	   C	14.277	-4.321	-2.109	C.2	2	CBZ1	0.000	
84	   C	12.932	-4.934	-2.579	C.3	2	CBZ1	0.000	
85	   C	14.009	-6.490	-4.015	C.3	2	CBZ1	0.000	
86	   C	11.730	-4.016	-2.375	C.2	2	CBZ1	0.000	
87	   C	10.938	-3.528	-3.361	C.2	2	CBZ1	0.000	
88	   C	10.951	-3.966	-4.814	C.3	2	CBZ1	0.000	
89	   C	11.458	-3.545	-0.942	C.3	2	CBZ1	0.000	
90	   C	10.057	-4.088	-0.512	C.3	2	CBZ1	0.000	
91	   C	12.297	-4.169	0.213	C.3	2	CBZ1	0.000	
92	   C	16.360	-2.895	-2.363	C.3	2	CBZ1	0.000	
93	   C	18.327	-2.134	-3.471	C.3	2	CBZ1	0.000	
94	   C	16.851	-2.526	-0.960	C.3	2	CBZ1	0.000	
95	   C	16.444	-1.136	-0.502	C.3	2	CBZ1	0.000	
96	   C	15.621	0.276	-1.699	C.3	2	CBZ1	0.000	
97	   C	14.984	-0.782	-0.794	C.3	2	CBZ1	0.000	
98	   C	14.731	0.708	1.145	C.2	2	CBZ1	0.000	
99	   C	13.730	0.879	2.273	C.3	2	CBZ1	0.000	
100	   C	5.731	-4.740	-3.897	C.3	2	CBZ1	0.000	
101	   C	6.396	-6.210	-5.800	C.2	2	CBZ1	0.000	
102	   C	7.266	-7.412	-6.181	C.3	2	CBZ1	0.000	
103	   C	7.093	-7.754	-7.675	C.3	2	CBZ1	0.000	
104	   C	8.741	-7.059	-5.911	C.3	2	CBZ1	0.000	
105	   C	6.847	-8.625	-5.330	C.3	2	CBZ1	0.000	
106	   C	5.371	-5.035	-2.447	C.2	2	CBZ1	0.000	
107	   C	6.068	-5.895	-1.680	C.2	2	CBZ1	0.000	
108	   C	5.728	-6.123	-0.401	C.2	2	CBZ1	0.000	
109	   C	4.674	-5.497	0.140	C.2	2	CBZ1	0.000	
110	   C	3.960	-4.646	-0.610	C.2	2	CBZ1	0.000	
111	   C	4.307	-4.425	-1.887	C.2	2	CBZ1	0.000	
112	   O	5.960	-2.387	-3.395	O.3	2	CBZ1	0.000	
113	   O	8.501	-4.744	-3.244	O.co2	2	CBZ1	0.000	
114	   O	8.665	-2.461	-3.454	O.3	2	CBZ1	0.000	
115	   O	11.518	-1.420	0.209	O.3	2	CBZ1	0.000	
116	   O	12.623	0.018	-1.728	O.3	2	CBZ1	0.000	
117	   O	12.220	0.412	-3.904	O.co2	2	CBZ1	0.000	
118	   O	14.948	-5.037	-1.394	O.2	2	CBZ1	0.000	
119	   O	13.057	-5.456	-3.892	O.3	2	CBZ1	0.000	
120	   O	16.921	-2.069	-3.353	O.3	2	CBZ1	0.000	
121	   O	16.933	-0.099	-1.320	O.3	2	CBZ1	0.000	
122	   O	14.329	-0.322	0.351	O.3	2	CBZ1	0.000	
123	   O	15.714	1.398	1.007	O.co2	2	CBZ1	0.000	
124	   O	5.731	-5.585	-6.588	O.2	2	CBZ1	0.000	
125	   H	6.758	-3.257	-5.118	 H	2	CBZ1	0.000	
126	   H	10.417	-1.600	-3.886	 H	2	CBZ1	0.000	
127	   H	10.161	-0.480	-1.949	 H	2	CBZ1	0.000	
128	   H	9.331	-1.734	-1.115	 H	2	CBZ1	0.000	
129	   H	11.596	-0.466	0.116	 H	2	CBZ1	0.000	
130	   H	12.550	-1.640	-2.900	 H	2	CBZ1	0.000	
131	   H	12.033	2.761	-4.636	 H	2	CBZ1	0.000	
132	   H	12.053	5.118	-4.212	 H	2	CBZ1	0.000	
133	   H	12.432	5.982	-1.959	 H	2	CBZ1	0.000	
134	   H	12.792	4.424	-0.109	 H	2	CBZ1	0.000	
135	   H	12.777	2.059	-0.484	 H	2	CBZ1	0.000	
136	   H	13.993	-2.471	-0.556	 H	2	CBZ1	0.000	
137	   H	14.666	-1.603	-4.272	 H	2	CBZ1	0.000	
138	   H	15.046	-3.335	-4.626	 H	2	CBZ1	0.000	
139	   H	13.414	-2.848	-4.237	 H	2	CBZ1	0.000	
140	   H	12.695	-5.811	-1.929	 H	2	CBZ1	0.000	
141	   H	13.952	-6.881	-5.055	 H	2	CBZ1	0.000	
142	   H	15.037	-6.099	-3.850	 H	2	CBZ1	0.000	
143	   H	13.780	-7.320	-3.311	 H	2	CBZ1	0.000	
144	   H	11.800	-3.534	-5.384	 H	2	CBZ1	0.000	
145	   H	10.940	-5.071	-4.918	 H	2	CBZ1	0.000	
146	   H	10.034	-3.638	-5.352	 H	2	CBZ1	0.000	
147	   H	9.766	-3.727	0.500	 H	2	CBZ1	0.000	
148	   H	9.208	-3.826	-1.166	 H	2	CBZ1	0.000	
149	   H	10.036	-5.202	-0.495	 H	2	CBZ1	0.000	
150	   H	11.997	-3.752	1.201	 H	2	CBZ1	0.000	
151	   H	12.156	-5.271	0.285	 H	2	CBZ1	0.000	
152	   H	13.390	-4.054	0.192	 H	2	CBZ1	0.000	
153	   H	16.724	-3.923	-2.613	 H	2	CBZ1	0.000	
154	   H	18.613	-1.573	-4.389	 H	2	CBZ1	0.000	
155	   H	18.826	-1.642	-2.610	 H	2	CBZ1	0.000	
156	   H	18.667	-3.187	-3.582	 H	2	CBZ1	0.000	
157	   H	16.424	-3.247	-0.224	 H	2	CBZ1	0.000	
158	   H	17.953	-2.647	-0.861	 H	2	CBZ1	0.000	
159	   H	16.765	-0.952	0.548	 H	2	CBZ1	0.000	
160	   H	15.418	1.338	-1.452	 H	2	CBZ1	0.000	
161	   H	15.466	0.089	-2.782	 H	2	CBZ1	0.000	
162	   H	12.707	1.051	1.867	 H	2	CBZ1	0.000	
163	   H	13.715	-0.031	2.916	 H	2	CBZ1	0.000	
164	   H	13.997	1.751	2.912	 H	2	CBZ1	0.000	
165	   H	4.769	-4.610	-4.446	 H	2	CBZ1	0.000	
166	   H	7.134	-6.339	-3.875	 H	2	CBZ1	0.000	
167	   H	7.714	-8.632	-7.960	 H	2	CBZ1	0.000	
168	   H	6.035	-8.007	-7.916	 H	2	CBZ1	0.000	
169	   H	7.403	-6.907	-8.328	 H	2	CBZ1	0.000	
170	   H	9.417	-7.883	-6.235	 H	2	CBZ1	0.000	
171	   H	8.940	-6.887	-4.830	 H	2	CBZ1	0.000	
172	   H	9.041	-6.139	-6.463	 H	2	CBZ1	0.000	
173	   H	5.770	-8.868	-5.480	 H	2	CBZ1	0.000	
174	   H	7.438	-9.528	-5.602	 H	2	CBZ1	0.000	
175	   H	7.004	-8.450	-4.241	 H	2	CBZ1	0.000	
176	   H	6.939	-6.440	-2.071	 H	2	CBZ1	0.000	
177	   H	6.317	-6.829	0.209	 H	2	CBZ1	0.000	
178	   H	4.394	-5.683	1.190	 H	2	CBZ1	0.000	
179	   H	3.088	-4.128	-0.177	 H	2	CBZ1	0.000	
180	   H	3.699	-3.721	-2.479	 H	2	CBZ1	0.000	
@<TRIPOS>BOND
1 1 2 1
2 1 23 1
3 1 24 1
4 1 25 1
5 2 3 1
6 2 26 1
7 2 27 1
8 3 4 1
9 3 28 1
10 3 29 1
11 4 5 1
12 4 30 1
13 4 31 1
14 5 6 1
15 5 32 1
16 5 33 1
17 6 7 1
18 6 34 1
19 6 35 1
20 7 8 1
21 7 36 1
22 7 37 1
23 8 9 1
24 8 38 1
25 8 39 1
26 9 10 1
27 9 40 1
28 9 41 1
29 10 11 1
30 10 42 1
31 10 43 1
32 11 12 1
33 11 44 1
34 11 45 1
35 12 13 1
36 12 46 1
37 12 47 1
38 13 14 1
39 13 48 1
40 13 49 1
41 14 15 1
42 14 50 1
43 14 51 1
44 15 16 1
45 15 52 1
46 15 53 1
47 16 17 1
48 16 54 1
49 16 55 1
50 17 18 1
51 17 56 1
52 17 57 1
53 18 22 1
54 18 58 1
55 18 59 1
56 19 20 1
57 19 21 1
58 19 112 1
59 20 60 1
60 20 61 1
61 20 62 1
62 21 63 1
63 21 64 1
64 21 65 1
65 19 22 1
66 66 101 1
67 66 166 1
68 67 68 1
69 67 100 1
70 67 125 1
71 68 113 2
72 68 114 1
73 69 70 1
74 69 87 1
75 69 126 1
76 70 71 1
77 70 127 1
78 70 128 1
79 71 72 1
80 71 89 1
81 71 115 1
82 72 80 1
83 72 116 1
84 72 130 1
85 73 74 1
86 73 117 2
87 74 75 1
88 74 79 2
89 75 76 2
90 75 131 1
91 76 77 1
92 76 132 1
93 77 78 2
94 77 133 1
95 78 79 1
96 78 134 1
97 79 135 1
98 80 81 1
99 80 97 1
100 80 136 1
101 81 82 1
102 81 83 1
103 81 92 1
104 82 137 1
105 82 138 1
106 82 139 1
107 83 84 1
108 83 118 2
109 84 86 1
110 84 119 1
111 84 140 1
112 85 141 1
113 85 142 1
114 85 143 1
115 86 87 2
116 86 89 1
117 87 88 1
118 88 144 1
119 88 145 1
120 88 146 1
121 89 90 1
122 89 91 1
123 90 147 1
124 90 148 1
125 90 149 1
126 91 150 1
127 91 151 1
128 91 152 1
129 92 94 1
130 92 120 1
131 92 153 1
132 93 154 1
133 93 155 1
134 93 156 1
135 94 95 1
136 94 157 1
137 94 158 1
138 95 97 1
139 95 121 1
140 95 159 1
141 96 97 1
142 96 160 1
143 96 161 1
144 97 122 1
145 98 99 1
146 98 123 2
147 99 162 1
148 99 163 1
149 99 164 1
150 66 100 1
151 100 106 1
152 100 165 1
153 101 102 1
154 101 124 2
155 102 103 1
156 102 104 1
157 102 105 1
158 103 167 1
159 103 168 1
160 103 169 1
161 104 170 1
162 104 171 1
163 104 172 1
164 105 173 1
165 105 174 1
166 105 175 1
167 106 107 1
168 106 111 2
169 107 108 2
170 107 176 1
171 108 109 1
172 108 177 1
173 109 110 2
174 109 178 1
175 110 111 1
176 110 179 1
177 111 180 1
178 67 112 1
179 69 114 1
180 115 129 1
181 73 116 1
182 85 119 1
183 93 120 1
184 96 121 1
185 98 122 1
@<TRIPOS>SUBSTRUCTURE
1	CBL1	1	GROUP	1 ****	CBL
2	CBZ1	66	GROUP	1 ****	CBZ
