# created with PyMOL 2.5.4
@<TRIPOS>MOLECULE
SN3
107 111 2               
SMALL
USER_CHARGES
@<TRIPOS>ATOM
1	   N	4.540	-7.633	-1.036	N.2	1	SN31	0.000	
2	   N	2.785	-6.414	-3.695	N.pl3	1	SN31	0.000	
3	   C	5.021	-5.218	1.503	C.2	1	SN31	0.000	
4	   C	5.631	-6.021	2.395	C.2	1	SN31	0.000	
5	   C	5.927	-7.298	2.118	C.2	1	SN31	0.000	
6	   C	5.565	-7.819	0.939	C.2	1	SN31	0.000	
7	   C	4.890	-7.071	0.049	C.2	1	SN31	0.000	
8	   C	3.888	-6.967	-1.885	C.2	1	SN31	0.000	
9	   C	3.550	-5.690	-1.687	C.2	1	SN31	0.000	
10	   C	3.904	-5.067	-0.560	C.2	1	SN31	0.000	
11	   C	4.605	-5.780	0.344	C.2	1	SN31	0.000	
12	   C	2.785	-5.189	-2.870	C.3	1	SN31	0.000	
13	   C	3.410	-7.336	-3.085	C.2	1	SN31	0.000	
14	   C	3.504	-8.526	-3.693	C.2	1	SN31	0.000	
15	   C	2.943	-8.680	-4.909	C.2	1	SN31	0.000	
16	   C	2.299	-7.650	-5.491	C.2	1	SN31	0.000	
17	   C	1.675	-7.871	-6.844	C.3	1	SN31	0.000	
18	   C	3.064	-9.809	-7.154	C.2	1	SN31	0.000	
19	   C	2.982	-10.004	-5.640	C.3	1	SN31	0.000	
20	   C	1.769	-10.889	-5.326	C.3	1	SN31	0.000	
21	   C	1.565	-11.179	-3.832	C.3	1	SN31	0.000	
22	   C	2.224	-6.461	-4.825	C.2	1	SN31	0.000	
23	   O	4.698	-3.930	1.848	O.3	1	SN31	0.000	
24	   O	2.436	-8.723	-7.672	O.3	1	SN31	0.000	
25	   O	3.697	-10.605	-7.816	O.co2	1	SN31	0.000	
26	   O	4.162	-10.727	-5.295	O.3	1	SN31	0.000	
27	   O	1.642	-5.504	-5.292	O.2	1	SN31	0.000	
28	   H	5.907	-5.621	3.384	 H	1	SN31	0.000	
29	   H	6.450	-7.921	2.863	 H	1	SN31	0.000	
30	   H	5.804	-8.875	0.725	 H	1	SN31	0.000	
31	   H	3.617	-4.013	-0.429	 H	1	SN31	0.000	
32	   H	3.329	-4.353	-3.366	 H	1	SN31	0.000	
33	   H	1.754	-4.887	-2.573	 H	1	SN31	0.000	
34	   H	4.024	-9.358	-3.194	 H	1	SN31	0.000	
35	   H	0.646	-8.283	-6.734	 H	1	SN31	0.000	
36	   H	1.590	-6.914	-7.407	 H	1	SN31	0.000	
37	   H	4.448	-11.236	-6.060	 H	1	SN31	0.000	
38	   H	0.840	-10.413	-5.718	 H	1	SN31	0.000	
39	   H	1.879	-11.861	-5.865	 H	1	SN31	0.000	
40	   H	0.707	-11.873	-3.678	 H	1	SN31	0.000	
41	   H	2.464	-11.657	-3.380	 H	1	SN31	0.000	
42	   H	1.340	-10.251	-3.260	 H	1	SN31	0.000	
43	   C	-11.333	14.009	1.743	C.3	2	SNL1	0.000	
44	   C	-10.682	12.831	2.480	C.3	2	SNL1	0.000	
45	   C	-9.498	12.248	1.694	C.3	2	SNL1	0.000	
46	   C	-8.840	11.071	2.433	C.3	2	SNL1	0.000	
47	   C	-7.659	10.483	1.642	C.3	2	SNL1	0.000	
48	   C	-6.993	9.314	2.386	C.3	2	SNL1	0.000	
49	   C	-5.821	8.719	1.589	C.3	2	SNL1	0.000	
50	   C	-5.144	7.560	2.339	C.3	2	SNL1	0.000	
51	   C	-3.984	6.953	1.534	C.3	2	SNL1	0.000	
52	   C	-3.293	5.808	2.292	C.3	2	SNL1	0.000	
53	   C	-2.148	5.187	1.476	C.3	2	SNL1	0.000	
54	   C	-1.442	4.057	2.242	C.3	2	SNL1	0.000	
55	   C	-0.315	3.418	1.414	C.3	2	SNL1	0.000	
56	   C	0.410	2.305	2.188	C.3	2	SNL1	0.000	
57	   C	1.513	1.645	1.346	C.3	2	SNL1	0.000	
58	   C	2.258	0.550	2.127	C.3	2	SNL1	0.000	
59	   C	3.336	-0.133	1.271	C.3	2	SNL1	0.000	
60	   C	4.095	-1.206	2.055	C.3	2	SNL1	0.000	
61	   C	5.696	-2.943	1.706	C.3	2	SNL1	0.000	
62	   C	6.746	-3.309	0.656	C.3	2	SNL1	0.000	
63	   C	6.379	-2.670	3.042	C.3	2	SNL1	0.000	
64	   O	5.037	-1.801	1.196	O.3	2	SNL1	0.000	
65	   H	-12.191	14.420	2.324	 H	2	SNL1	0.000	
66	   H	-10.604	14.836	1.585	 H	2	SNL1	0.000	
67	   H	-11.718	13.695	0.746	 H	2	SNL1	0.000	
68	   H	-11.448	12.035	2.648	 H	2	SNL1	0.000	
69	   H	-10.333	13.174	3.484	 H	2	SNL1	0.000	
70	   H	-8.739	13.048	1.523	 H	2	SNL1	0.000	
71	   H	-9.852	11.905	0.693	 H	2	SNL1	0.000	
72	   H	-9.600	10.273	2.609	 H	2	SNL1	0.000	
73	   H	-8.481	11.416	3.431	 H	2	SNL1	0.000	
74	   H	-6.902	11.283	1.459	 H	2	SNL1	0.000	
75	   H	-8.020	10.131	0.647	 H	2	SNL1	0.000	
76	   H	-7.751	8.518	2.577	 H	2	SNL1	0.000	
77	   H	-6.624	9.669	3.377	 H	2	SNL1	0.000	
78	   H	-5.068	9.517	1.387	 H	2	SNL1	0.000	
79	   H	-6.193	8.354	0.602	 H	2	SNL1	0.000	
80	   H	-5.899	6.766	2.553	 H	2	SNL1	0.000	
81	   H	-4.761	7.929	3.320	 H	2	SNL1	0.000	
82	   H	-3.235	7.749	1.307	 H	2	SNL1	0.000	
83	   H	-4.371	6.572	0.559	 H	2	SNL1	0.000	
84	   H	-4.044	5.019	2.534	 H	2	SNL1	0.000	
85	   H	-2.892	6.195	3.259	 H	2	SNL1	0.000	
86	   H	-1.405	5.978	1.219	 H	2	SNL1	0.000	
87	   H	-2.555	4.786	0.517	 H	2	SNL1	0.000	
88	   H	-2.187	3.273	2.517	 H	2	SNL1	0.000	
89	   H	-1.019	4.463	3.192	 H	2	SNL1	0.000	
90	   H	0.421	4.203	1.122	 H	2	SNL1	0.000	
91	   H	-0.744	2.996	0.474	 H	2	SNL1	0.000	
92	   H	-0.329	1.529	2.500	 H	2	SNL1	0.000	
93	   H	0.857	2.733	3.117	 H	2	SNL1	0.000	
94	   H	2.243	2.422	1.015	 H	2	SNL1	0.000	
95	   H	1.060	1.201	0.428	 H	2	SNL1	0.000	
96	   H	1.527	-0.216	2.480	 H	2	SNL1	0.000	
97	   H	2.733	1.000	3.032	 H	2	SNL1	0.000	
98	   H	4.058	0.632	0.899	 H	2	SNL1	0.000	
99	   H	2.856	-0.600	0.377	 H	2	SNL1	0.000	
100	   H	3.377	-1.970	2.429	 H	2	SNL1	0.000	
101	   H	4.617	-0.727	2.914	 H	2	SNL1	0.000	
102	   H	7.348	-4.200	0.941	 H	2	SNL1	0.000	
103	   H	7.470	-2.472	0.521	 H	2	SNL1	0.000	
104	   H	6.291	-3.500	-0.342	 H	2	SNL1	0.000	
105	   H	7.000	-1.746	2.995	 H	2	SNL1	0.000	
106	   H	5.654	-2.562	3.879	 H	2	SNL1	0.000	
107	   H	7.060	-3.503	3.322	 H	2	SNL1	0.000	
@<TRIPOS>BOND
1 1 8 2
2 2 13 1
3 2 22 1
4 3 4 1
5 3 11 2
6 4 5 2
7 4 28 1
8 5 6 1
9 5 29 1
10 6 7 2
11 6 30 1
12 1 7 1
13 7 11 1
14 8 9 1
15 8 13 1
16 9 10 2
17 9 12 1
18 10 11 1
19 10 31 1
20 2 12 1
21 12 32 1
22 12 33 1
23 13 14 2
24 14 15 1
25 14 34 1
26 15 16 2
27 15 19 1
28 16 17 1
29 16 22 1
30 17 24 1
31 17 35 1
32 17 36 1
33 18 19 1
34 18 25 2
35 19 20 1
36 19 26 1
37 20 21 1
38 20 38 1
39 20 39 1
40 21 40 1
41 21 41 1
42 21 42 1
43 22 27 2
44 3 23 1
45 18 24 1
46 26 37 1
47 43 44 1
48 43 65 1
49 43 66 1
50 43 67 1
51 44 45 1
52 44 68 1
53 44 69 1
54 45 46 1
55 45 70 1
56 45 71 1
57 46 47 1
58 46 72 1
59 46 73 1
60 47 48 1
61 47 74 1
62 47 75 1
63 48 49 1
64 48 76 1
65 48 77 1
66 49 50 1
67 49 78 1
68 49 79 1
69 50 51 1
70 50 80 1
71 50 81 1
72 51 52 1
73 51 82 1
74 51 83 1
75 52 53 1
76 52 84 1
77 52 85 1
78 53 54 1
79 53 86 1
80 53 87 1
81 54 55 1
82 54 88 1
83 54 89 1
84 55 56 1
85 55 90 1
86 55 91 1
87 56 57 1
88 56 92 1
89 56 93 1
90 57 58 1
91 57 94 1
92 57 95 1
93 58 59 1
94 58 96 1
95 58 97 1
96 59 60 1
97 59 98 1
98 59 99 1
99 60 64 1
100 60 100 1
101 60 101 1
102 23 61 1
103 61 62 1
104 61 63 1
105 62 102 1
106 62 103 1
107 62 104 1
108 63 105 1
109 63 106 1
110 63 107 1
111 61 64 1
@<TRIPOS>SUBSTRUCTURE
1	SN31	1	GROUP	1 ****	SN3
2	SNL1	43	GROUP	1 ****	SNL
