@<TRIPOS>MOLECULE
ABI
121 125 1 0 0
SMALL
USER_CHARGES


@<TRIPOS>ATOM
      1 C          -5.9804   -4.0621  -14.1379 C.3       1     ABI    0.0000
      2 C          -4.5453   -4.1176  -13.5976 C.3       1     ABI    0.0000
      3 C          -4.4497   -3.5535  -12.1710 C.3       1     ABI    0.0000
      4 C          -3.0137   -3.6088  -11.6244 C.3       1     ABI    0.0000
      5 C          -2.9207   -3.0479  -10.1960 C.3       1     ABI    0.0000
      6 C          -1.4867   -3.1094   -9.6447 C.3       1     ABI    0.0000
      7 C          -1.3986   -2.5579   -8.2123 C.3       1     ABI    0.0000
      8 C           0.0317   -2.6295   -7.6527 C.3       1     ABI    0.0000
      9 C           0.1111   -2.0934   -6.2139 C.3       1     ABI    0.0000
     10 C           1.5351   -2.1822   -5.6408 C.3       1     ABI    0.0000
     11 C           1.6014   -1.6700   -4.1927 C.3       1     ABI    0.0000
     12 C           3.0169   -1.7805   -3.6027 C.3       1     ABI    0.0000
     13 C           3.0661   -1.2984   -2.1436 C.3       1     ABI    0.0000
     14 C           4.4705   -1.4360   -1.5330 C.3       1     ABI    0.0000
     15 C           4.4976   -0.9916   -0.0614 C.3       1     ABI    0.0000
     16 C           5.8886   -1.1594    0.5717 C.3       1     ABI    0.0000
     17 C           5.8900   -0.7580    2.0558 C.3       1     ABI    0.0000
     18 C           7.2605   -0.9573    2.7059 C.3       1     ABI    0.0000
     19 O           7.1600   -0.6068    4.0630 O.3       1     ABI    0.0000
     20 C           8.3127   -0.8137    4.8532 C.3       1     ABI    0.0000
     21 C           7.9113   -0.3351    6.2549 C.3       1     ABI    0.0000
     22 C           8.6749   -2.2941    4.9649 C.3       1     ABI    0.0000
     23 O           9.3227    0.0796    4.4302 O.3       1     ABI    0.0000
     24 C          10.3956   -0.4233    3.6817 C.3       1     ABI    0.0000
     25 C          10.9716    0.7314    2.8559 C.3       1     ABI    0.0000
     26 C          11.5230    1.8437    3.7605 C.3       1     ABI    0.0000
     27 C          12.6019    1.3503    4.7628 C.3       1     ABI    0.0000
     28 C          12.1121    1.5926    6.2104 C.3       1     ABI    0.0000
     29 C          12.7588   -0.1582    4.5935 C.2       1     ABI    0.0000
     30 C          13.9534   -0.7644    4.4984 C.2       1     ABI    0.0000
     31 C          15.2749   -0.0552    4.5240 C.3       1     ABI    0.0000
     32 C          15.1563    1.3570    5.1115 C.3       1     ABI    0.0000
     33 C          16.4297    2.1627    4.8311 C.3       1     ABI    0.0000
     34 C          17.7863    1.5657    5.2122 C.3       1     ABI    0.0000
     35 C          18.6102    2.8207    5.0917 C.2       1     ABI    0.0000
     36 C          17.9064    3.9685    5.1715 C.2       1     ABI    0.0000
     37 C          18.4588    5.2028    5.1316 C.ar      1     ABI    0.0000
     38 C          17.7733    6.3268    5.4176 C.ar      1     ABI    0.0000
     39 C          18.3708    7.5269    5.3671 C.ar      1     ABI    0.0000
     40 C          19.6662    7.5744    5.0298 C.ar      1     ABI    0.0000
     41 N          20.3399    6.5401    4.7611 N.ar      1     ABI    0.0000
     42 C          19.7552    5.4175    4.8156 C.ar      1     ABI    0.0000
     43 C          16.4360    3.5970    5.4202 C.3       1     ABI    0.0000
     44 C          16.2185    3.6425    6.9483 C.3       1     ABI    0.0000
     45 C          15.3058    4.3069    4.6449 C.3       1     ABI    0.0000
     46 C          13.9510    3.5900    4.8298 C.3       1     ABI    0.0000
     47 C          13.9497    2.0836    4.4803 C.3       1     ABI    0.0000
     48 C          11.4920   -0.9904    4.5915 C.3       1     ABI    0.0000
     49 H          -6.0345   -4.4740  -15.1720 H         1     ABI    0.0000
     50 H          -6.6733   -4.6568  -13.4999 H         1     ABI    0.0000
     51 H          -6.3572   -3.0142  -14.1707 H         1     ABI    0.0000
     52 H          -3.8749   -3.5366  -14.2752 H         1     ABI    0.0000
     53 H          -4.1908   -5.1761  -13.6057 H         1     ABI    0.0000
     54 H          -5.1241   -4.1356  -11.4989 H         1     ABI    0.0000
     55 H          -4.8065   -2.4961  -12.1677 H         1     ABI    0.0000
     56 H          -2.3394   -3.0254  -12.2954 H         1     ABI    0.0000
     57 H          -2.6573   -4.6663  -11.6299 H         1     ABI    0.0000
     58 H          -3.5986   -3.6294   -9.5268 H         1     ABI    0.0000
     59 H          -3.2739   -1.9893  -10.1904 H         1     ABI    0.0000
     60 H          -0.8085   -2.5234  -10.3095 H         1     ABI    0.0000
     61 H          -1.1326   -4.1676   -9.6553 H         1     ABI    0.0000
     62 H          -2.0826   -3.1411   -7.5510 H         1     ABI    0.0000
     63 H          -1.7474   -1.4979   -8.2015 H         1     ABI    0.0000
     64 H           0.7166   -2.0392   -8.3067 H         1     ABI    0.0000
     65 H           0.3822   -3.6888   -7.6716 H         1     ABI    0.0000
     66 H          -0.5836   -2.6786   -5.5654 H         1     ABI    0.0000
     67 H          -0.2301   -1.0311   -6.1949 H         1     ABI    0.0000
     68 H           2.2304   -1.5859   -6.2780 H         1     ABI    0.0000
     69 H           1.8793   -3.2433   -5.6725 H         1     ABI    0.0000
     70 H           0.8939   -2.2601   -3.5626 H         1     ABI    0.0000
     71 H           1.2684   -0.6054   -4.1602 H         1     ABI    0.0000
     72 H           3.7253   -1.1769   -4.2182 H         1     ABI    0.0000
     73 H           3.3538   -2.8433   -3.6509 H         1     ABI    0.0000
     74 H           2.3427   -1.8938   -1.5371 H         1     ABI    0.0000
     75 H           2.7434   -0.2313   -2.0942 H         1     ABI    0.0000
     76 H           5.1946   -0.8235   -2.1209 H         1     ABI    0.0000
     77 H           4.7992   -2.5002   -1.6021 H         1     ABI    0.0000
     78 H           3.7574   -1.5950    0.5162 H         1     ABI    0.0000
     79 H           4.1843    0.0771    0.0096 H         1     ABI    0.0000
     80 H           6.6295   -0.5371    0.0160 H         1     ABI    0.0000
     81 H           6.2095   -2.2242    0.4784 H         1     ABI    0.0000
     82 H           5.1336   -1.3707    2.6028 H         1     ABI    0.0000
     83 H           5.5843    0.3113    2.1527 H         1     ABI    0.0000
     84 H           8.0034   -0.3007    2.2006 H         1     ABI    0.0000
     85 H           7.5584   -2.0234    2.6033 H         1     ABI    0.0000
     86 H           8.7582   -0.4242    6.9734 H         1     ABI    0.0000
     87 H           7.0593   -0.9255    6.6629 H         1     ABI    0.0000
     88 H           7.5993    0.7348    6.2451 H         1     ABI    0.0000
     89 H           7.7728   -2.8874    5.2401 H         1     ABI    0.0000
     90 H           9.0710   -2.7590    4.0388 H         1     ABI    0.0000
     91 H           9.4184   -2.4834    5.7694 H         1     ABI    0.0000
     92 H          10.0310   -1.1818    2.9527 H         1     ABI    0.0000
     93 H          10.1814    1.1489    2.1859 H         1     ABI    0.0000
     94 H          11.7810    0.3540    2.1859 H         1     ABI    0.0000
     95 H          10.6743    2.3182    4.3055 H         1     ABI    0.0000
     96 H          11.9137    2.6479    3.0960 H         1     ABI    0.0000
     97 H          11.8810    2.6606    6.4118 H         1     ABI    0.0000
     98 H          11.1645    1.0542    6.4308 H         1     ABI    0.0000
     99 H          12.8578    1.2550    6.9635 H         1     ABI    0.0000
    100 H          13.9986   -1.8598    4.3760 H         1     ABI    0.0000
    101 H          15.6606   -0.0281    3.4783 H         1     ABI    0.0000
    102 H          15.9937   -0.6491    5.1366 H         1     ABI    0.0000
    103 H          15.0118    1.2674    6.2124 H         1     ABI    0.0000
    104 H          16.4833    2.2615    3.7131 H         1     ABI    0.0000
    105 H          18.1194    0.7800    4.4966 H         1     ABI    0.0000
    106 H          17.8134    1.1699    6.2515 H         1     ABI    0.0000
    107 H          19.6980    2.7164    4.9893 H         1     ABI    0.0000
    108 H          16.7236    6.3196    5.7318 H         1     ABI    0.0000
    109 H          17.8178    8.4499    5.6069 H         1     ABI    0.0000
    110 H          20.1964    8.5402    4.9800 H         1     ABI    0.0000
    111 H          20.4405    4.5970    4.5510 H         1     ABI    0.0000
    112 H          16.9931    3.0633    7.4983 H         1     ABI    0.0000
    113 H          16.2648    4.6863    7.3299 H         1     ABI    0.0000
    114 H          15.2391    3.2352    7.2734 H         1     ABI    0.0000
    115 H          15.1617    5.3582    4.9741 H         1     ABI    0.0000
    116 H          15.5558    4.3547    3.5591 H         1     ABI    0.0000
    117 H          13.1820    4.1245    4.2242 H         1     ABI    0.0000
    118 H          13.6453    3.7344    5.8884 H         1     ABI    0.0000
    119 H          14.1221    2.0229    3.3745 H         1     ABI    0.0000
    120 H          11.7141   -2.0356    4.2728 H         1     ABI    0.0000
    121 H          11.1534   -1.0655    5.6487 H         1     ABI    0.0000
@<TRIPOS>BOND
     1     1     2     1
     2     1    49     1
     3     1    50     1
     4     1    51     1
     5     2     3     1
     6     2    52     1
     7     2    53     1
     8     3     4     1
     9     3    54     1
    10     3    55     1
    11     4     5     1
    12     4    56     1
    13     4    57     1
    14     5     6     1
    15     5    58     1
    16     5    59     1
    17     6     7     1
    18     6    60     1
    19     6    61     1
    20     7     8     1
    21     7    62     1
    22     7    63     1
    23     8     9     1
    24     8    64     1
    25     8    65     1
    26     9    10     1
    27     9    66     1
    28     9    67     1
    29    10    11     1
    30    10    68     1
    31    10    69     1
    32    11    12     1
    33    11    70     1
    34    11    71     1
    35    12    13     1
    36    12    72     1
    37    12    73     1
    38    13    14     1
    39    13    74     1
    40    13    75     1
    41    14    15     1
    42    14    76     1
    43    14    77     1
    44    15    16     1
    45    15    78     1
    46    15    79     1
    47    16    17     1
    48    16    80     1
    49    16    81     1
    50    17    18     1
    51    17    82     1
    52    17    83     1
    53    18    19     1
    54    18    84     1
    55    18    85     1
    56    19    20     1
    57    20    21     1
    58    20    22     1
    59    20    23     1
    60    21    86     1
    61    21    87     1
    62    21    88     1
    63    22    89     1
    64    22    90     1
    65    22    91     1
    66    23    24     1
    67    24    25     1
    68    24    48     1
    69    24    92     1
    70    25    26     1
    71    25    93     1
    72    25    94     1
    73    26    27     1
    74    26    95     1
    75    26    96     1
    76    27    28     1
    77    27    29     1
    78    27    47     1
    79    28    97     1
    80    28    98     1
    81    28    99     1
    82    29    30     2
    83    29    48     1
    84    30    31     1
    85    30   100     1
    86    31    32     1
    87    31   101     1
    88    31   102     1
    89    32    33     1
    90    32    47     1
    91    32   103     1
    92    33    34     1
    93    33    43     1
    94    33   104     1
    95    34    35     1
    96    34   105     1
    97    34   106     1
    98    35    36     2
    99    35   107     1
   100    36    37     1
   101    36    43     1
   102    37    38     1
   103    37    42     2
   104    38    39     2
   105    38   108     1
   106    39    40     1
   107    39   109     1
   108    40    41     2
   109    40   110     1
   110    41    42     1
   111    42   111     1
   112    43    44     1
   113    43    45     1
   114    44   112     1
   115    44   113     1
   116    44   114     1
   117    45    46     1
   118    45   115     1
   119    45   116     1
   120    46    47     1
   121    46   117     1
   122    46   118     1
   123    47   119     1
   124    48   120     1
   125    48   121     1
