@<TRIPOS>MOLECULE
ABI
145 150 1 0 0
SMALL
USER_CHARGES


@<TRIPOS>ATOM
      1 C          16.3229   11.0038    5.7974 C.3       1     ABI    0.0000
      2 C          16.2144   11.1909    4.2687 C.3       1     ABI    0.0000
      3 C          17.6297   11.5009    3.7562 C.2       1     ABI    0.0000
      4 C          18.2822   12.6860    3.7700 C.ar      1     ABI    0.0000
      5 C          17.7901   13.7966    4.3557 C.ar      1     ABI    0.0000
      6 N          18.3469   14.9331    4.4081 N.ar      1     ABI    0.0000
      7 C          19.4793   15.0630    3.8635 C.ar      1     ABI    0.0000
      8 C          20.1059   14.0524    3.2471 C.ar      1     ABI    0.0000
      9 C          19.4979   12.8567    3.2082 C.ar      1     ABI    0.0000
     10 C          18.1842   10.3380    3.3571 C.2       1     ABI    0.0000
     11 C          17.2830    9.1372    3.4742 C.3       1     ABI    0.0000
     12 C          15.9429    9.8765    3.4920 C.3       1     ABI    0.0000
     13 C          14.6849    9.1207    3.9325 C.3       1     ABI    0.0000
     14 C          14.5582    7.7919    3.1749 C.3       1     ABI    0.0000
     15 C          13.1696    7.2242    3.2073 C.2       1     ABI    0.0000
     16 C          12.0868    7.8953    3.6275 C.2       1     ABI    0.0000
     17 C          10.7050    7.3044    3.4830 C.3       1     ABI    0.0000
     18 C           9.9748    8.0573    2.3635 C.3       1     ABI    0.0000
     19 O           8.5998    7.9364    2.5894 O.3       1     ABI    0.0000
     20 C           7.7331    8.1421    1.5490 C.2       1     ABI    0.0000
     21 O           6.5380    8.0353    1.7503 O.2       1     ABI    0.0000
     22 O           8.2104    8.4621    0.3056 O.3       1     ABI    0.0000
     23 C           7.2904    8.6429   -0.7512 C.3       1     ABI    0.0000
     24 C           6.6209    7.3456   -1.1516 C.ar      1     ABI    0.0000
     25 C           7.3525    6.2948   -1.5574 C.ar      1     ABI    0.0000
     26 C           6.7637    5.1429   -1.9120 C.ar      1     ABI    0.0000
     27 C           5.4315    4.9636   -1.8264 C.ar      1     ABI    0.0000
     28 O           4.8354    3.8022   -2.2470 O.3       1     ABI    0.0000
     29 C           4.5743    2.8200   -1.2620 C.3       1     ABI    0.0000
     30 O           3.9048    1.8508   -2.0486 O.3       1     ABI    0.0000
     31 C           3.8953    0.5380   -1.5472 C.3       1     ABI    0.0000
     32 C           2.9519   -0.2975   -2.4015 C.3       1     ABI    0.0000
     33 O           2.9770   -1.6240   -1.9339 O.3       1     ABI    0.0000
     34 C           2.1262   -2.4717   -2.6666 C.3       1     ABI    0.0000
     35 C           2.2514   -3.8917   -2.1141 C.3       1     ABI    0.0000
     36 C           1.3506   -4.8835   -2.8679 C.3       1     ABI    0.0000
     37 C           1.4999   -6.3160   -2.3299 C.3       1     ABI    0.0000
     38 C           0.5993   -7.3115   -3.0793 C.3       1     ABI    0.0000
     39 C           0.7686   -8.7459   -2.5525 C.3       1     ABI    0.0000
     40 C          -0.1348   -9.7444   -3.2945 C.3       1     ABI    0.0000
     41 C           0.0491  -11.1795   -2.7744 C.3       1     ABI    0.0000
     42 C          -0.8593  -12.1802   -3.5072 C.3       1     ABI    0.0000
     43 C          -0.6659  -13.6151   -2.9900 C.3       1     ABI    0.0000
     44 C          -1.5807  -14.6173   -3.7128 C.3       1     ABI    0.0000
     45 C          -1.3820  -16.0516   -3.1960 C.3       1     ABI    0.0000
     46 C          -2.3032  -17.0545   -3.9096 C.3       1     ABI    0.0000
     47 C          -2.1014  -18.4882   -3.3924 C.3       1     ABI    0.0000
     48 C          -3.0275  -19.4914   -4.0993 C.3       1     ABI    0.0000
     49 C          -2.8241  -20.9247   -3.5818 C.3       1     ABI    0.0000
     50 C          -3.7526  -21.9279   -4.2846 C.3       1     ABI    0.0000
     51 C          -3.5457  -23.3571   -3.7656 C.3       1     ABI    0.0000
     52 C           5.8825    2.3153   -0.6622 C.3       1     ABI    0.0000
     53 C           3.6274    3.3506   -0.1912 C.3       1     ABI    0.0000
     54 C           4.7087    6.0552   -1.5096 C.ar      1     ABI    0.0000
     55 C           5.2841    7.2136   -1.1529 C.ar      1     ABI    0.0000
     56 C          10.4023    9.5327    2.3060 C.3       1     ABI    0.0000
     57 C          10.8615   10.0387    3.6819 C.3       1     ABI    0.0000
     58 C          12.1398    9.3133    4.1829 C.3       1     ABI    0.0000
     59 C          12.0754    9.2227    5.7256 C.3       1     ABI    0.0000
     60 C          13.4439   10.0127    3.6927 C.3       1     ABI    0.0000
     61 H          13.3537   10.1252    2.5822 H         1     ABI    0.0000
     62 C          13.6682   11.4420    4.2395 C.3       1     ABI    0.0000
     63 C          15.0230   12.0885    3.8761 C.3       1     ABI    0.0000
     64 H          14.7793    8.8851    5.0165 H         1     ABI    0.0000
     65 H          15.7684   10.1512    2.4166 H         1     ABI    0.0000
     66 H          17.1204   10.2792    6.0746 H         1     ABI    0.0000
     67 H          16.5688   11.9633    6.3033 H         1     ABI    0.0000
     68 H          15.3887   10.6355    6.2696 H         1     ABI    0.0000
     69 H          16.8313   13.7924    4.8884 H         1     ABI    0.0000
     70 H          19.9462   16.0606    3.9191 H         1     ABI    0.0000
     71 H          21.0946   14.2043    2.7834 H         1     ABI    0.0000
     72 H          20.0399   12.0556    2.6841 H         1     ABI    0.0000
     73 H          19.2102   10.1813    3.0005 H         1     ABI    0.0000
     74 H          17.3804    8.4573    2.5975 H         1     ABI    0.0000
     75 H          17.4867    8.5775    4.4137 H         1     ABI    0.0000
     76 H          14.8138    7.9363    2.0985 H         1     ABI    0.0000
     77 H          15.2722    7.0449    3.5948 H         1     ABI    0.0000
     78 H          13.0453    6.2156    2.7782 H         1     ABI    0.0000
     79 H          10.7334    6.2144    3.2531 H         1     ABI    0.0000
     80 H          10.1654    7.3960    4.4525 H         1     ABI    0.0000
     81 H          10.2329    7.5637    1.3948 H         1     ABI    0.0000
     82 H           6.5679    9.4431   -0.4758 H         1     ABI    0.0000
     83 H           7.8688    9.0258   -1.6238 H         1     ABI    0.0000
     84 H           8.4503    6.3826   -1.6142 H         1     ABI    0.0000
     85 H           7.3963    4.3142   -2.2731 H         1     ABI    0.0000
     86 H           4.9190    0.1036   -1.6153 H         1     ABI    0.0000
     87 H           3.5441    0.5312   -0.4910 H         1     ABI    0.0000
     88 H           1.9144    0.1036   -2.3268 H         1     ABI    0.0000
     89 H           3.2826   -0.2739   -3.4659 H         1     ABI    0.0000
     90 H           1.0751   -2.1150   -2.5675 H         1     ABI    0.0000
     91 H           2.4235   -2.4568   -3.7406 H         1     ABI    0.0000
     92 H           3.3144   -4.2239   -2.1921 H         1     ABI    0.0000
     93 H           1.9806   -3.8931   -1.0311 H         1     ABI    0.0000
     94 H           0.2864   -4.5608   -2.7750 H         1     ABI    0.0000
     95 H           1.6109   -4.8682   -3.9529 H         1     ABI    0.0000
     96 H           2.5645   -6.6366   -2.4269 H         1     ABI    0.0000
     97 H           1.2444   -6.3318   -1.2437 H         1     ABI    0.0000
     98 H          -0.4668   -6.9999   -2.9708 H         1     ABI    0.0000
     99 H           0.8456   -7.2867   -4.1674 H         1     ABI    0.0000
    100 H           1.8343   -9.0570   -2.6667 H         1     ABI    0.0000
    101 H           0.5288   -8.7703   -1.4628 H         1     ABI    0.0000
    102 H          -1.2013   -9.4396   -3.1719 H         1     ABI    0.0000
    103 H           0.0980   -9.7143   -4.3855 H         1     ABI    0.0000
    104 H           1.1147  -11.4849   -2.9034 H         1     ABI    0.0000
    105 H          -0.1763  -11.2081   -1.6818 H         1     ABI    0.0000
    106 H          -1.9252  -11.8786   -3.3726 H         1     ABI    0.0000
    107 H          -0.6387  -12.1487   -4.6007 H         1     ABI    0.0000
    108 H           0.3988  -13.9182   -3.1313 H         1     ABI    0.0000
    109 H          -0.8789  -13.6447   -1.8949 H         1     ABI    0.0000
    110 H          -2.6455  -14.3162   -3.5679 H         1     ABI    0.0000
    111 H          -1.3709  -14.5866   -4.8084 H         1     ABI    0.0000
    112 H          -0.3185  -16.3545   -3.3469 H         1     ABI    0.0000
    113 H          -1.5849  -16.0804   -2.0990 H         1     ABI    0.0000
    114 H          -3.3667  -16.7526   -3.7566 H         1     ABI    0.0000
    115 H          -2.1023  -17.0254   -5.0070 H         1     ABI    0.0000
    116 H          -1.0390  -18.7915   -3.5497 H         1     ABI    0.0000
    117 H          -2.2974  -18.5157   -2.2941 H         1     ABI    0.0000
    118 H          -4.0898  -19.1886   -3.9407 H         1     ABI    0.0000
    119 H          -2.8328  -19.4638   -5.1978 H         1     ABI    0.0000
    120 H          -1.7626  -21.2292   -3.7429 H         1     ABI    0.0000
    121 H          -3.0162  -20.9523   -2.4828 H         1     ABI    0.0000
    122 H          -4.8161  -21.6293   -4.1235 H         1     ABI    0.0000
    123 H          -3.5633  -21.9057   -5.3845 H         1     ABI    0.0000
    124 H          -4.2255  -24.0726   -4.2832 H         1     ABI    0.0000
    125 H          -2.4996  -23.6994   -3.9371 H         1     ABI    0.0000
    126 H          -3.7540  -23.4220   -2.6732 H         1     ABI    0.0000
    127 H           5.7203    1.5221    0.1007 H         1     ABI    0.0000
    128 H           6.4207    3.1238   -0.1194 H         1     ABI    0.0000
    129 H           6.5686    1.9182   -1.4445 H         1     ABI    0.0000
    130 H           4.0988    4.1554    0.4160 H         1     ABI    0.0000
    131 H           2.6908    3.7557   -0.6375 H         1     ABI    0.0000
    132 H           3.3336    2.5549    0.5284 H         1     ABI    0.0000
    133 H           3.6073    5.9959   -1.5312 H         1     ABI    0.0000
    134 H           4.6461    8.0674   -0.8709 H         1     ABI    0.0000
    135 H           9.5761   10.1757    1.9228 H         1     ABI    0.0000
    136 H          11.2433    9.6546    1.5829 H         1     ABI    0.0000
    137 H          10.0114    9.8669    4.3841 H         1     ABI    0.0000
    138 H          10.9960   11.1416    3.6668 H         1     ABI    0.0000
    139 H          11.9947   10.2251    6.1994 H         1     ABI    0.0000
    140 H          11.1860    8.6534    6.0756 H         1     ABI    0.0000
    141 H          12.9564    8.7056    6.1625 H         1     ABI    0.0000
    142 H          12.8659   12.1246    3.8744 H         1     ABI    0.0000
    143 H          13.5764   11.4395    5.3474 H         1     ABI    0.0000
    144 H          15.0511   12.3011    2.7815 H         1     ABI    0.0000
    145 H          15.0535   13.0770    4.3826 H         1     ABI    0.0000
@<TRIPOS>BOND
     1     1     2     1
     2     1    66     1
     3     1    67     1
     4     1    68     1
     5     2     3     1
     6     2    12     1
     7     2    63     1
     8     3     4     1
     9     3    10     2
    10     4     5     1
    11     4     9     2
    12     5     6     2
    13     5    69     1
    14     6     7     1
    15     7     8     2
    16     7    70     1
    17     8     9     1
    18     8    71     1
    19     9    72     1
    20    10    11     1
    21    10    73     1
    22    11    12     1
    23    11    74     1
    24    11    75     1
    25    12    13     1
    26    12    65     1
    27    13    14     1
    28    13    60     1
    29    13    64     1
    30    14    15     1
    31    14    76     1
    32    14    77     1
    33    15    16     2
    34    15    78     1
    35    16    17     1
    36    16    58     1
    37    17    18     1
    38    17    79     1
    39    17    80     1
    40    18    19     1
    41    18    56     1
    42    18    81     1
    43    19    20     1
    44    20    21     2
    45    20    22     1
    46    22    23     1
    47    23    24     1
    48    23    82     1
    49    23    83     1
    50    24    25     1
    51    24    55     2
    52    25    26     2
    53    25    84     1
    54    26    27     1
    55    26    85     1
    56    27    28     1
    57    27    54     2
    58    28    29     1
    59    29    30     1
    60    29    52     1
    61    29    53     1
    62    30    31     1
    63    31    32     1
    64    31    86     1
    65    31    87     1
    66    32    33     1
    67    32    88     1
    68    32    89     1
    69    33    34     1
    70    34    35     1
    71    34    90     1
    72    34    91     1
    73    35    36     1
    74    35    92     1
    75    35    93     1
    76    36    37     1
    77    36    94     1
    78    36    95     1
    79    37    38     1
    80    37    96     1
    81    37    97     1
    82    38    39     1
    83    38    98     1
    84    38    99     1
    85    39    40     1
    86    39   100     1
    87    39   101     1
    88    40    41     1
    89    40   102     1
    90    40   103     1
    91    41    42     1
    92    41   104     1
    93    41   105     1
    94    42    43     1
    95    42   106     1
    96    42   107     1
    97    43    44     1
    98    43   108     1
    99    43   109     1
   100    44    45     1
   101    44   110     1
   102    44   111     1
   103    45    46     1
   104    45   112     1
   105    45   113     1
   106    46    47     1
   107    46   114     1
   108    46   115     1
   109    47    48     1
   110    47   116     1
   111    47   117     1
   112    48    49     1
   113    48   118     1
   114    48   119     1
   115    49    50     1
   116    49   120     1
   117    49   121     1
   118    50    51     1
   119    50   122     1
   120    50   123     1
   121    51   124     1
   122    51   125     1
   123    51   126     1
   124    52   127     1
   125    52   128     1
   126    52   129     1
   127    53   130     1
   128    53   131     1
   129    53   132     1
   130    54    55     1
   131    54   133     1
   132    55   134     1
   133    56    57     1
   134    56   135     1
   135    56   136     1
   136    57    58     1
   137    57   137     1
   138    57   138     1
   139    58    59     1
   140    58    60     1
   141    59   139     1
   142    59   140     1
   143    59   141     1
   144    60    61     1
   145    60    62     1
   146    62    63     1
   147    62   142     1
   148    62   143     1
   149    63   144     1
   150    63   145     1
