@<TRIPOS>MOLECULE
CBZ
180 185 1 0 0
SMALL
USER_CHARGES


@<TRIPOS>ATOM
      1 C          -2.1641   12.3615   13.9436 C.3       1     CBZ    0.0000
      2 C          -0.9210   11.8354   13.2135 C.3       1     CBZ    0.0000
      3 C          -1.2884   10.8255   12.1147 C.3       1     CBZ    0.0000
      4 C          -0.0466   10.2969   11.3783 C.3       1     CBZ    0.0000
      5 C          -0.4181    9.2902   10.2774 C.3       1     CBZ    0.0000
      6 C           0.8199    8.7637    9.5328 C.3       1     CBZ    0.0000
      7 C           0.4397    7.7657    8.4270 C.3       1     CBZ    0.0000
      8 C           1.6700    7.2429    7.6671 C.3       1     CBZ    0.0000
      9 C           1.2743    6.2599    6.5533 C.3       1     CBZ    0.0000
     10 C           2.4920    5.7420    5.7699 C.3       1     CBZ    0.0000
     11 C           2.0729    4.7814    4.6452 C.3       1     CBZ    0.0000
     12 C           3.2722    4.2686    3.8307 C.3       1     CBZ    0.0000
     13 C           2.8206    3.3382    2.6931 C.3       1     CBZ    0.0000
     14 C           3.9949    2.8294    1.8406 C.3       1     CBZ    0.0000
     15 C           3.5017    1.9376    0.6894 C.3       1     CBZ    0.0000
     16 C           4.6448    1.4303   -0.2053 C.3       1     CBZ    0.0000
     17 C           4.1018    0.5848   -1.3686 C.3       1     CBZ    0.0000
     18 C           5.2033    0.0731   -2.2985 C.3       1     CBZ    0.0000
     19 O           4.5829   -0.6362   -3.3432 O.3       1     CBZ    0.0000
     20 C           5.4364   -1.3613   -4.2073 C.3       1     CBZ    0.0000
     21 C           4.5098   -1.8922   -5.3019 C.3       1     CBZ    0.0000
     22 C           6.5357   -0.4874   -4.7986 C.3       1     CBZ    0.0000
     23 O           5.9601   -2.3874   -3.3952 O.3       1     CBZ    0.0000
     24 C           6.5960   -3.4702   -4.0386 C.3       1     CBZ    0.0000
     25 C           8.0275   -3.6637   -3.5138 C.2       1     CBZ    0.0000
     26 O           8.5008   -4.7442   -3.2445 O.2       1     CBZ    0.0000
     27 O           8.6647   -2.4613   -3.4545 O.3       1     CBZ    0.0000
     28 C          10.0289   -2.3252   -3.1219 C.3       1     CBZ    0.0000
     29 C          10.2062   -1.5809   -1.7843 C.3       1     CBZ    0.0000
     30 C          11.5094   -1.9972   -1.0689 C.3       1     CBZ    0.0000
     31 O          11.5181   -1.4203    0.2091 O.3       1     CBZ    0.0000
     32 C          12.7044   -1.3804   -1.8437 C.3       1     CBZ    0.0000
     33 O          12.6234    0.0181   -1.7283 O.3       1     CBZ    0.0000
     34 C          12.4055    0.8662   -2.7919 C.2       1     CBZ    0.0000
     35 O          12.2198    0.4120   -3.9042 O.2       1     CBZ    0.0000
     36 C          12.4069    2.2201   -2.5905 C.ar      1     CBZ    0.0000
     37 C          12.2077    3.0923   -3.5987 C.ar      1     CBZ    0.0000
     38 C          12.2162    4.4166   -3.3765 C.ar      1     CBZ    0.0000
     39 C          12.4240    4.8942   -2.1410 C.ar      1     CBZ    0.0000
     40 C          12.6217    4.0380   -1.1285 C.ar      1     CBZ    0.0000
     41 C          12.6115    2.7148   -1.3538 C.ar      1     CBZ    0.0000
     42 C          14.1298   -1.8688   -1.4769 C.3       1     CBZ    0.0000
     43 C          14.7961   -2.8917   -2.4720 C.3       1     CBZ    0.0000
     44 C          14.4645   -2.6531   -3.9642 C.3       1     CBZ    0.0000
     45 C          14.2773   -4.3215   -2.1088 C.2       1     CBZ    0.0000
     46 O          14.9475   -5.0374   -1.3936 O.2       1     CBZ    0.0000
     47 C          12.9322   -4.9344   -2.5789 C.3       1     CBZ    0.0000
     48 O          13.0574   -5.4557   -3.8925 O.3       1     CBZ    0.0000
     49 C          14.0091   -6.4902   -4.0147 C.3       1     CBZ    0.0000
     50 C          11.7301   -4.0158   -2.3747 C.2       1     CBZ    0.0000
     51 C          10.9376   -3.5281   -3.3614 C.2       1     CBZ    0.0000
     52 C          10.9509   -3.9658   -4.8142 C.3       1     CBZ    0.0000
     53 C          11.4579   -3.5448   -0.9415 C.3       1     CBZ    0.0000
     54 C          10.0571   -4.0884   -0.5123 C.3       1     CBZ    0.0000
     55 C          12.2965   -4.1692    0.2126 C.3       1     CBZ    0.0000
     56 C          16.3603   -2.8955   -2.3626 C.3       1     CBZ    0.0000
     57 O          16.9215   -2.0691   -3.3533 O.3       1     CBZ    0.0000
     58 C          18.3269   -2.1337   -3.4710 C.3       1     CBZ    0.0000
     59 C          16.8507   -2.5261   -0.9603 C.3       1     CBZ    0.0000
     60 C          16.4435   -1.1364   -0.5017 C.3       1     CBZ    0.0000
     61 O          16.9331   -0.0994   -1.3199 O.3       1     CBZ    0.0000
     62 C          15.6206    0.2763   -1.6986 C.3       1     CBZ    0.0000
     63 C          14.9845   -0.7822   -0.7945 C.3       1     CBZ    0.0000
     64 O          14.3292   -0.3219    0.3511 O.3       1     CBZ    0.0000
     65 C          14.7312    0.7077    1.1450 C.2       1     CBZ    0.0000
     66 C          13.7299    0.8786    2.2732 C.3       1     CBZ    0.0000
     67 O          15.7138    1.3983    1.0074 O.2       1     CBZ    0.0000
     68 C           5.7314   -4.7401   -3.8970 C.3       1     CBZ    0.0000
     69 N           6.4473   -5.8818   -4.4744 N.am      1     CBZ    0.0000
     70 C           6.3961   -6.2103   -5.8003 C.2       1     CBZ    0.0000
     71 O           5.7305   -5.5851   -6.5877 O.2       1     CBZ    0.0000
     72 C           7.2656   -7.4117   -6.1815 C.3       1     CBZ    0.0000
     73 C           7.0925   -7.7540   -7.6747 C.3       1     CBZ    0.0000
     74 C           8.7411   -7.0593   -5.9112 C.3       1     CBZ    0.0000
     75 C           6.8467   -8.6253   -5.3295 C.3       1     CBZ    0.0000
     76 C           5.3705   -5.0351   -2.4472 C.ar      1     CBZ    0.0000
     77 C           6.0675   -5.8952   -1.6798 C.ar      1     CBZ    0.0000
     78 C           5.7283   -6.1234   -0.4012 C.ar      1     CBZ    0.0000
     79 C           4.6737   -5.4970    0.1400 C.ar      1     CBZ    0.0000
     80 C           3.9598   -4.6458   -0.6102 C.ar      1     CBZ    0.0000
     81 C           4.3074   -4.4254   -1.8873 C.ar      1     CBZ    0.0000
     82 H          -1.8827   13.0920   14.7367 H         1     CBZ    0.0000
     83 H          -2.8561   12.8768   13.2389 H         1     CBZ    0.0000
     84 H          -2.7251   11.5317   14.4311 H         1     CBZ    0.0000
     85 H          -0.2381   11.3520   13.9525 H         1     CBZ    0.0000
     86 H          -0.3694   12.6947   12.7625 H         1     CBZ    0.0000
     87 H          -1.9741   11.3128   11.3813 H         1     CBZ    0.0000
     88 H          -1.8409    9.9696   12.5702 H         1     CBZ    0.0000
     89 H           0.6383    9.8077   12.1110 H         1     CBZ    0.0000
     90 H           0.5062   11.1536   10.9245 H         1     CBZ    0.0000
     91 H          -1.1065    9.7798    9.5481 H         1     CBZ    0.0000
     92 H          -0.9687    8.4323   10.7316 H         1     CBZ    0.0000
     93 H           1.5071    8.2681   10.2590 H         1     CBZ    0.0000
     94 H           1.3725    9.6220    9.0818 H         1     CBZ    0.0000
     95 H          -0.2539    8.2620    7.7072 H         1     CBZ    0.0000
     96 H          -0.1088    6.9051    8.8787 H         1     CBZ    0.0000
     97 H           2.3611    6.7361    8.3816 H         1     CBZ    0.0000
     98 H           2.2222    8.1040    7.2210 H         1     CBZ    0.0000
     99 H           0.5737    6.7682    5.8486 H         1     CBZ    0.0000
    100 H           0.7280    5.3956    7.0004 H         1     CBZ    0.0000
    101 H           3.1888    5.2184    6.4666 H         1     CBZ    0.0000
    102 H           3.0443    6.6066    5.3309 H         1     CBZ    0.0000
    103 H           1.3642    5.3072    3.9619 H         1     CBZ    0.0000
    104 H           1.5276    3.9130    5.0857 H         1     CBZ    0.0000
    105 H           3.9751    3.7222    4.5033 H         1     CBZ    0.0000
    106 H           3.8259    5.1367    3.4006 H         1     CBZ    0.0000
    107 H           2.1043    3.8878    2.0367 H         1     CBZ    0.0000
    108 H           2.2736    2.4664    3.1248 H         1     CBZ    0.0000
    109 H           4.7030    2.2543    2.4830 H         1     CBZ    0.0000
    110 H           4.5532    3.6998    1.4212 H         1     CBZ    0.0000
    111 H           2.7806    2.5173    0.0649 H         1     CBZ    0.0000
    112 H           2.9488    1.0645    1.1107 H         1     CBZ    0.0000
    113 H           5.3548    0.8207    0.4022 H         1     CBZ    0.0000
    114 H           5.2123    2.3001   -0.6132 H         1     CBZ    0.0000
    115 H           3.3814    1.1979   -1.9620 H         1     CBZ    0.0000
    116 H           3.5357   -0.2860   -0.9585 H         1     CBZ    0.0000
    117 H           5.8944   -0.5892   -1.7306 H         1     CBZ    0.0000
    118 H           5.7647    0.9396   -2.7147 H         1     CBZ    0.0000
    119 H           5.0337   -2.4542   -6.1046 H         1     CBZ    0.0000
    120 H           3.9919   -1.0485   -5.8132 H         1     CBZ    0.0000
    121 H           3.7155   -2.5489   -4.8803 H         1     CBZ    0.0000
    122 H           6.1091    0.4364   -5.2514 H         1     CBZ    0.0000
    123 H           7.2946   -0.1834   -4.0439 H         1     CBZ    0.0000
    124 H           7.0892   -1.0152   -5.6067 H         1     CBZ    0.0000
    125 H           6.7581   -3.2568   -5.1184 H         1     CBZ    0.0000
    126 H          10.4166   -1.5996   -3.8856 H         1     CBZ    0.0000
    127 H          10.1613   -0.4801   -1.9489 H         1     CBZ    0.0000
    128 H           9.3312   -1.7338   -1.1148 H         1     CBZ    0.0000
    129 H          11.5963   -0.4657    0.1164 H         1     CBZ    0.0000
    130 H          12.5504   -1.6402   -2.9001 H         1     CBZ    0.0000
    131 H          12.0331    2.7614   -4.6359 H         1     CBZ    0.0000
    132 H          12.0526    5.1180   -4.2123 H         1     CBZ    0.0000
    133 H          12.4315    5.9817   -1.9588 H         1     CBZ    0.0000
    134 H          12.7923    4.4237   -0.1091 H         1     CBZ    0.0000
    135 H          12.7770    2.0586   -0.4843 H         1     CBZ    0.0000
    136 H          13.9933   -2.4708   -0.5561 H         1     CBZ    0.0000
    137 H          14.6657   -1.6028   -4.2724 H         1     CBZ    0.0000
    138 H          15.0460   -3.3350   -4.6258 H         1     CBZ    0.0000
    139 H          13.4141   -2.8482   -4.2373 H         1     CBZ    0.0000
    140 H          12.6947   -5.8113   -1.9289 H         1     CBZ    0.0000
    141 H          13.9516   -6.8810   -5.0552 H         1     CBZ    0.0000
    142 H          15.0366   -6.0993   -3.8496 H         1     CBZ    0.0000
    143 H          13.7799   -7.3202   -3.3108 H         1     CBZ    0.0000
    144 H          11.7997   -3.5336   -5.3844 H         1     CBZ    0.0000
    145 H          10.9398   -5.0714   -4.9178 H         1     CBZ    0.0000
    146 H          10.0339   -3.6385   -5.3516 H         1     CBZ    0.0000
    147 H           9.7661   -3.7267    0.5002 H         1     CBZ    0.0000
    148 H           9.2079   -3.8265   -1.1657 H         1     CBZ    0.0000
    149 H          10.0357   -5.2022   -0.4945 H         1     CBZ    0.0000
    150 H          11.9973   -3.7522    1.2006 H         1     CBZ    0.0000
    151 H          12.1564   -5.2712    0.2847 H         1     CBZ    0.0000
    152 H          13.3896   -4.0535    0.1924 H         1     CBZ    0.0000
    153 H          16.7238   -3.9227   -2.6132 H         1     CBZ    0.0000
    154 H          18.6132   -1.5726   -4.3887 H         1     CBZ    0.0000
    155 H          18.8261   -1.6417   -2.6102 H         1     CBZ    0.0000
    156 H          18.6672   -3.1865   -3.5824 H         1     CBZ    0.0000
    157 H          16.4242   -3.2470   -0.2238 H         1     CBZ    0.0000
    158 H          17.9527   -2.6474   -0.8612 H         1     CBZ    0.0000
    159 H          16.7653   -0.9525    0.5482 H         1     CBZ    0.0000
    160 H          15.4181    1.3381   -1.4524 H         1     CBZ    0.0000
    161 H          15.4662    0.0885   -2.7819 H         1     CBZ    0.0000
    162 H          12.7074    1.0508    1.8669 H         1     CBZ    0.0000
    163 H          13.7154   -0.0308    2.9159 H         1     CBZ    0.0000
    164 H          13.9972    1.7506    2.9116 H         1     CBZ    0.0000
    165 H           4.7690   -4.6098   -4.4458 H         1     CBZ    0.0000
    166 H           7.1340   -6.3395   -3.8751 H         1     CBZ    0.0000
    167 H           7.7143   -8.6325   -7.9601 H         1     CBZ    0.0000
    168 H           6.0351   -8.0074   -7.9159 H         1     CBZ    0.0000
    169 H           7.4027   -6.9073   -8.3285 H         1     CBZ    0.0000
    170 H           9.4168   -7.8827   -6.2354 H         1     CBZ    0.0000
    171 H           8.9401   -6.8873   -4.8302 H         1     CBZ    0.0000
    172 H           9.0412   -6.1391   -6.4625 H         1     CBZ    0.0000
    173 H           5.7702   -8.8683   -5.4802 H         1     CBZ    0.0000
    174 H           7.4382   -9.5284   -5.6023 H         1     CBZ    0.0000
    175 H           7.0044   -8.4504   -4.2414 H         1     CBZ    0.0000
    176 H           6.9393   -6.4405   -2.0710 H         1     CBZ    0.0000
    177 H           6.3174   -6.8290    0.2089 H         1     CBZ    0.0000
    178 H           4.3937   -5.6831    1.1902 H         1     CBZ    0.0000
    179 H           3.0876   -4.1280   -0.1769 H         1     CBZ    0.0000
    180 H           3.6987   -3.7215   -2.4792 H         1     CBZ    0.0000
@<TRIPOS>BOND
     1     1     2     1
     2     1    82     1
     3     1    83     1
     4     1    84     1
     5     2     3     1
     6     2    85     1
     7     2    86     1
     8     3     4     1
     9     3    87     1
    10     3    88     1
    11     4     5     1
    12     4    89     1
    13     4    90     1
    14     5     6     1
    15     5    91     1
    16     5    92     1
    17     6     7     1
    18     6    93     1
    19     6    94     1
    20     7     8     1
    21     7    95     1
    22     7    96     1
    23     8     9     1
    24     8    97     1
    25     8    98     1
    26     9    10     1
    27     9    99     1
    28     9   100     1
    29    10    11     1
    30    10   101     1
    31    10   102     1
    32    11    12     1
    33    11   103     1
    34    11   104     1
    35    12    13     1
    36    12   105     1
    37    12   106     1
    38    13    14     1
    39    13   107     1
    40    13   108     1
    41    14    15     1
    42    14   109     1
    43    14   110     1
    44    15    16     1
    45    15   111     1
    46    15   112     1
    47    16    17     1
    48    16   113     1
    49    16   114     1
    50    17    18     1
    51    17   115     1
    52    17   116     1
    53    18    19     1
    54    18   117     1
    55    18   118     1
    56    19    20     1
    57    20    21     1
    58    20    22     1
    59    20    23     1
    60    21   119     1
    61    21   120     1
    62    21   121     1
    63    22   122     1
    64    22   123     1
    65    22   124     1
    66    23    24     1
    67    24    25     1
    68    24    68     1
    69    24   125     1
    70    25    26     2
    71    25    27     1
    72    27    28     1
    73    28    29     1
    74    28    51     1
    75    28   126     1
    76    29    30     1
    77    29   127     1
    78    29   128     1
    79    30    31     1
    80    30    32     1
    81    30    53     1
    82    31   129     1
    83    32    33     1
    84    32    42     1
    85    32   130     1
    86    33    34     1
    87    34    35     2
    88    34    36     1
    89    36    37     1
    90    36    41     2
    91    37    38     2
    92    37   131     1
    93    38    39     1
    94    38   132     1
    95    39    40     2
    96    39   133     1
    97    40    41     1
    98    40   134     1
    99    41   135     1
   100    42    43     1
   101    42    63     1
   102    42   136     1
   103    43    44     1
   104    43    45     1
   105    43    56     1
   106    44   137     1
   107    44   138     1
   108    44   139     1
   109    45    46     2
   110    45    47     1
   111    47    48     1
   112    47    50     1
   113    47   140     1
   114    48    49     1
   115    49   141     1
   116    49   142     1
   117    49   143     1
   118    50    51     2
   119    50    53     1
   120    51    52     1
   121    52   144     1
   122    52   145     1
   123    52   146     1
   124    53    54     1
   125    53    55     1
   126    54   147     1
   127    54   148     1
   128    54   149     1
   129    55   150     1
   130    55   151     1
   131    55   152     1
   132    56    57     1
   133    56    59     1
   134    56   153     1
   135    57    58     1
   136    58   154     1
   137    58   155     1
   138    58   156     1
   139    59    60     1
   140    59   157     1
   141    59   158     1
   142    60    61     1
   143    60    63     1
   144    60   159     1
   145    61    62     1
   146    62    63     1
   147    62   160     1
   148    62   161     1
   149    63    64     1
   150    64    65     1
   151    65    66     1
   152    65    67     2
   153    66   162     1
   154    66   163     1
   155    66   164     1
   156    68    69     1
   157    68    76     1
   158    68   165     1
   159    69    70     1
   160    69   166     1
   161    70    71     2
   162    70    72     1
   163    72    73     1
   164    72    74     1
   165    72    75     1
   166    73   167     1
   167    73   168     1
   168    73   169     1
   169    74   170     1
   170    74   171     1
   171    74   172     1
   172    75   173     1
   173    75   174     1
   174    75   175     1
   175    76    77     1
   176    76    81     2
   177    77    78     2
   178    77   176     1
   179    78    79     1
   180    78   177     1
   181    79    80     2
   182    79   178     1
   183    80    81     1
   184    80   179     1
   185    81   180     1
