@<TRIPOS>MOLECULE
CA4
107 108 1 0 0
SMALL
USER_CHARGES


@<TRIPOS>ATOM
      1 C         -17.2255    0.0422    2.4728 C.3       1     CA4    0.0000
      2 C         -15.8565    0.1571    3.1563 C.3       1     CA4    0.0000
      3 C         -14.7046    0.1109    2.1399 C.3       1     CA4    0.0000
      4 C         -13.3305    0.2224    2.8205 C.3       1     CA4    0.0000
      5 C         -12.1799    0.1746    1.8019 C.3       1     CA4    0.0000
      6 C         -10.8040    0.2773    2.4803 C.3       1     CA4    0.0000
      7 C          -9.6565    0.2241    1.4585 C.3       1     CA4    0.0000
      8 C          -8.2774    0.3119    2.1324 C.3       1     CA4    0.0000
      9 C          -7.1349    0.2490    1.1056 C.3       1     CA4    0.0000
     10 C          -5.7512    0.3159    1.7727 C.3       1     CA4    0.0000
     11 C          -4.6158    0.2383    0.7391 C.3       1     CA4    0.0000
     12 C          -3.2269    0.2789    1.3972 C.3       1     CA4    0.0000
     13 C          -2.1009    0.1833    0.3549 C.3       1     CA4    0.0000
     14 C          -0.7064    0.1945    1.0019 C.3       1     CA4    0.0000
     15 C           0.4080    0.0794   -0.0505 C.3       1     CA4    0.0000
     16 C           1.8077    0.0622    0.5845 C.3       1     CA4    0.0000
     17 C           2.9076   -0.0601   -0.4816 C.3       1     CA4    0.0000
     18 C           4.3153   -0.1120    0.1131 C.3       1     CA4    0.0000
     19 O           4.5438    1.0493    0.8666 O.3       1     CA4    0.0000
     20 C           5.8870    1.3619    1.1628 C.3       1     CA4    0.0000
     21 C           5.8542    2.1555    2.4721 C.3       1     CA4    0.0000
     22 C           6.7871    0.1450    1.3657 C.3       1     CA4    0.0000
     23 O           6.4632    2.2137    0.1935 O.3       1     CA4    0.0000
     24 C           5.8741    2.3072   -1.0442 C.ar      1     CA4    0.0000
     25 C           6.4256    1.6811   -2.1042 C.ar      1     CA4    0.0000
     26 C           5.9510    1.7657   -3.3606 C.ar      1     CA4    0.0000
     27 C           6.5167    1.1834   -4.4401 C.2       1     CA4    0.0000
     28 C           7.4427    0.2119   -4.5528 C.2       1     CA4    0.0000
     29 C           7.7580   -0.8115   -3.7324 C.ar      1     CA4    0.0000
     30 C           8.8618   -1.5464   -3.9546 C.ar      1     CA4    0.0000
     31 C           9.2098   -2.6009   -3.1938 C.ar      1     CA4    0.0000
     32 O          10.4003   -3.2463   -3.4250 O.3       1     CA4    0.0000
     33 C          10.2748   -4.3910   -4.2381 C.3       1     CA4    0.0000
     34 C           8.4602   -2.8963   -2.1078 C.ar      1     CA4    0.0000
     35 O           8.8038   -3.9516   -1.2979 O.3       1     CA4    0.0000
     36 C           9.5508   -3.5732   -0.1642 C.3       1     CA4    0.0000
     37 C           7.2657   -2.2851   -1.9474 C.ar      1     CA4    0.0000
     38 O           6.4371   -2.6149   -0.9027 O.3       1     CA4    0.0000
     39 C           5.4366   -3.5473   -1.2403 C.3       1     CA4    0.0000
     40 C           6.9673   -1.2362   -2.7347 C.ar      1     CA4    0.0000
     41 C           4.9050    2.5937   -3.5331 C.ar      1     CA4    0.0000
     42 C           4.3658    3.2614   -2.5035 C.ar      1     CA4    0.0000
     43 C           4.8565    3.1752   -1.2529 C.ar      1     CA4    0.0000
     44 O           4.3327    3.8562   -0.1779 O.3       1     CA4    0.0000
     45 C           2.9781    4.2412   -0.2267 C.3       1     CA4    0.0000
     46 H         -18.0503    0.0775    3.2213 H         1     CA4    0.0000
     47 H         -17.3861    0.8764    1.7521 H         1     CA4    0.0000
     48 H         -17.3163   -0.9172    1.9138 H         1     CA4    0.0000
     49 H         -15.7415   -0.6764    3.8900 H         1     CA4    0.0000
     50 H         -15.8112    1.1139    3.7295 H         1     CA4    0.0000
     51 H         -14.8243    0.9453    1.4085 H         1     CA4    0.0000
     52 H         -14.7571   -0.8453    1.5668 H         1     CA4    0.0000
     53 H         -13.2118   -0.6122    3.5517 H         1     CA4    0.0000
     54 H         -13.2776    1.1785    3.3935 H         1     CA4    0.0000
     55 H         -12.2963    1.0118    1.0733 H         1     CA4    0.0000
     56 H         -12.2369   -0.7795    1.2259 H         1     CA4    0.0000
     57 H         -10.6885   -0.5594    3.2097 H         1     CA4    0.0000
     58 H         -10.7440    1.2321    3.0548 H         1     CA4    0.0000
     59 H          -9.7681    1.0648    0.7332 H         1     CA4    0.0000
     60 H          -9.7235   -0.7274    0.8792 H         1     CA4    0.0000
     61 H          -8.1675   -0.5277    2.8593 H         1     CA4    0.0000
     62 H          -8.2056    1.2647    2.7088 H         1     CA4    0.0000
     63 H          -7.2390    1.0940    0.3842 H         1     CA4    0.0000
     64 H          -7.2165   -0.6992    0.5226 H         1     CA4    0.0000
     65 H          -5.6497   -0.5269    2.4971 H         1     CA4    0.0000
     66 H          -5.6626    1.2663    2.3509 H         1     CA4    0.0000
     67 H          -4.7102    1.0878    0.0216 H         1     CA4    0.0000
     68 H          -4.7170   -0.7060    0.1529 H         1     CA4    0.0000
     69 H          -3.1354   -0.5677    2.1185 H         1     CA4    0.0000
     70 H          -3.1172    1.2259    1.9772 H         1     CA4    0.0000
     71 H          -2.1844    1.0372   -0.3589 H         1     CA4    0.0000
     72 H          -2.2245   -0.7567   -0.2339 H         1     CA4    0.0000
     73 H          -0.6252   -0.6555    1.7203 H         1     CA4    0.0000
     74 H          -0.5732    1.1378    1.5830 H         1     CA4    0.0000
     75 H           0.3354    0.9376   -0.7605 H         1     CA4    0.0000
     76 H           0.2615   -0.8561   -0.6412 H         1     CA4    0.0000
     77 H           1.8862   -0.7943    1.2952 H         1     CA4    0.0000
     78 H           1.9535    1.0001    1.1710 H         1     CA4    0.0000
     79 H           2.8383    0.8037   -1.1856 H         1     CA4    0.0000
     80 H           2.7391   -0.9850   -1.0845 H         1     CA4    0.0000
     81 H           4.4205   -1.0075    0.7667 H         1     CA4    0.0000
     82 H           5.0410   -0.1726   -0.7226 H         1     CA4    0.0000
     83 H           6.8688    2.5118    2.7626 H         1     CA4    0.0000
     84 H           5.4616    1.5354    3.3101 H         1     CA4    0.0000
     85 H           5.1991    3.0526    2.3885 H         1     CA4    0.0000
     86 H           6.3591   -0.5703    2.1037 H         1     CA4    0.0000
     87 H           6.9936   -0.3998    0.4194 H         1     CA4    0.0000
     88 H           7.7851    0.4522    1.7530 H         1     CA4    0.0000
     89 H           7.3458    1.1098   -1.9014 H         1     CA4    0.0000
     90 H           6.2526    1.6508   -5.4100 H         1     CA4    0.0000
     91 H           7.9643    0.2013   -5.5307 H         1     CA4    0.0000
     92 H           9.5425   -1.2781   -4.7816 H         1     CA4    0.0000
     93 H          11.2853   -4.8400   -4.3636 H         1     CA4    0.0000
     94 H           9.6036   -5.1350   -3.7543 H         1     CA4    0.0000
     95 H           9.8756   -4.1049   -5.2370 H         1     CA4    0.0000
     96 H           9.7760   -4.4902    0.4246 H         1     CA4    0.0000
     97 H          10.5063   -3.0976   -0.4793 H         1     CA4    0.0000
     98 H           8.9608   -2.8706    0.4659 H         1     CA4    0.0000
     99 H           4.8313   -3.7500   -0.3286 H         1     CA4    0.0000
    100 H           4.7739   -3.1249   -2.0285 H         1     CA4    0.0000
    101 H           5.9018   -4.4955   -1.5909 H         1     CA4    0.0000
    102 H           5.9960   -0.7515   -2.5607 H         1     CA4    0.0000
    103 H           4.4640    2.7507   -4.5333 H         1     CA4    0.0000
    104 H           3.5135    3.9222   -2.7278 H         1     CA4    0.0000
    105 H           2.6908    4.5994    0.7874 H         1     CA4    0.0000
    106 H           2.8341    5.0828   -0.9393 H         1     CA4    0.0000
    107 H           2.3394    3.3667   -0.4846 H         1     CA4    0.0000
@<TRIPOS>BOND
     1     1     2     1
     2     1    46     1
     3     1    47     1
     4     1    48     1
     5     2     3     1
     6     2    49     1
     7     2    50     1
     8     3     4     1
     9     3    51     1
    10     3    52     1
    11     4     5     1
    12     4    53     1
    13     4    54     1
    14     5     6     1
    15     5    55     1
    16     5    56     1
    17     6     7     1
    18     6    57     1
    19     6    58     1
    20     7     8     1
    21     7    59     1
    22     7    60     1
    23     8     9     1
    24     8    61     1
    25     8    62     1
    26     9    10     1
    27     9    63     1
    28     9    64     1
    29    10    11     1
    30    10    65     1
    31    10    66     1
    32    11    12     1
    33    11    67     1
    34    11    68     1
    35    12    13     1
    36    12    69     1
    37    12    70     1
    38    13    14     1
    39    13    71     1
    40    13    72     1
    41    14    15     1
    42    14    73     1
    43    14    74     1
    44    15    16     1
    45    15    75     1
    46    15    76     1
    47    16    17     1
    48    16    77     1
    49    16    78     1
    50    17    18     1
    51    17    79     1
    52    17    80     1
    53    18    19     1
    54    18    81     1
    55    18    82     1
    56    19    20     1
    57    20    21     1
    58    20    22     1
    59    20    23     1
    60    21    83     1
    61    21    84     1
    62    21    85     1
    63    22    86     1
    64    22    87     1
    65    22    88     1
    66    23    24     1
    67    24    25     1
    68    24    43     2
    69    25    26     2
    70    25    89     1
    71    26    27     1
    72    26    41     1
    73    27    28     2
    74    27    90     1
    75    28    29     1
    76    28    91     1
    77    29    30     2
    78    29    40     1
    79    30    31     1
    80    30    92     1
    81    31    32     1
    82    31    34     2
    83    32    33     1
    84    33    93     1
    85    33    94     1
    86    33    95     1
    87    34    35     1
    88    34    37     1
    89    35    36     1
    90    36    96     1
    91    36    97     1
    92    36    98     1
    93    37    38     1
    94    37    40     2
    95    38    39     1
    96    39    99     1
    97    39   100     1
    98    39   101     1
    99    40   102     1
   100    41    42     2
   101    41   103     1
   102    42    43     1
   103    42   104     1
   104    43    44     1
   105    44    45     1
   106    45   105     1
   107    45   106     1
   108    45   107     1
