@<TRIPOS>MOLECULE
CRI
140 144 1 0 0
SMALL
USER_CHARGES


@<TRIPOS>ATOM
      1 N          -9.9450   11.0343    5.2452 N.3       1     CRI    0.0000
      2 C         -10.0722    9.8767    4.7418 C.ar      1     CRI    0.0000
      3 C         -10.2687    9.8154    3.4062 C.ar      1     CRI    0.0000
      4 O         -10.2474   10.9825    2.6776 O.3       1     CRI    0.0000
      5 C         -10.0159   10.9867    1.2810 C.3       1     CRI    0.0000
      6 C         -11.3633   10.8701    0.5610 C.3       1     CRI    0.0000
      7 C          -8.7505   10.2176    0.8508 C.ar      1     CRI    0.0000
      8 C          -7.5535   10.5643    1.3923 C.ar      1     CRI    0.0000
      9 Cl         -7.3943   11.8672    2.5340 Cl        1     CRI    0.0000
     10 C          -6.4047    9.9328    1.0761 C.ar      1     CRI    0.0000
     11 F          -5.2432   10.2746    1.6179 F         1     CRI    0.0000
     12 C          -6.4212    8.9297    0.1912 C.ar      1     CRI    0.0000
     13 C          -7.5798    8.5815   -0.3780 C.ar      1     CRI    0.0000
     14 C          -8.7226    9.2161   -0.0628 C.ar      1     CRI    0.0000
     15 Cl        -10.0959    8.6173   -0.9322 Cl        1     CRI    0.0000
     16 C         -10.3937    8.5760    2.8939 C.ar      1     CRI    0.0000
     17 C         -10.3502    7.4717    3.6624 C.ar      1     CRI    0.0000
     18 C         -10.4809    6.2292    3.1601 C.ar      1     CRI    0.0000
     19 C         -10.4432    5.0456    3.7990 C.ar      1     CRI    0.0000
     20 N         -10.5996    4.0770    2.9998 N.ar      1     CRI    0.0000
     21 N         -10.7360    4.5849    1.8833 N.ar      1     CRI    0.0000
     22 C         -10.9480    3.8558    0.6101 C.3       1     CRI    0.0000
     23 C          -9.7750    2.9007    0.3295 C.3       1     CRI    0.0000
     24 C         -10.0338    2.0876   -0.9470 C.3       1     CRI    0.0000
     25 N         -11.2961    1.3653   -0.8077 N.am      1     CRI    0.0000
     26 C         -11.3768   -0.0066   -0.7500 C.2       1     CRI    0.0000
     27 O         -12.4423   -0.5628   -0.6123 O.2       1     CRI    0.0000
     28 O         -10.2200   -0.7303   -0.8313 O.3       1     CRI    0.0000
     29 C         -10.2825   -2.1343   -0.6862 C.3       1     CRI    0.0000
     30 C          -8.8779   -2.6970   -0.7303 C.ar      1     CRI    0.0000
     31 C          -8.2204   -2.8054   -1.8966 C.ar      1     CRI    0.0000
     32 C          -6.9712   -3.2924   -1.9390 C.ar      1     CRI    0.0000
     33 C          -6.2994   -3.6386   -0.8239 C.ar      1     CRI    0.0000
     34 O          -5.0405   -4.1805   -0.8824 O.3       1     CRI    0.0000
     35 C          -3.9541   -3.2878   -0.7183 C.3       1     CRI    0.0000
     36 O          -2.8694   -4.1981   -0.7536 O.3       1     CRI    0.0000
     37 C          -1.6104   -3.6481   -1.0500 C.3       1     CRI    0.0000
     38 C          -0.5408   -4.6997   -0.7903 C.3       1     CRI    0.0000
     39 O           0.7147   -4.1267   -1.0616 O.3       1     CRI    0.0000
     40 C           1.7820   -5.0146   -0.8364 C.3       1     CRI    0.0000
     41 C           3.0902   -4.2809   -1.1322 C.3       1     CRI    0.0000
     42 C           4.3246   -5.1650   -0.8923 C.3       1     CRI    0.0000
     43 C           5.6282   -4.3990   -1.1706 C.3       1     CRI    0.0000
     44 C           6.8781   -5.2586   -0.9208 C.3       1     CRI    0.0000
     45 C           8.1695   -4.4659   -1.1810 C.3       1     CRI    0.0000
     46 C           9.4322   -5.3041   -0.9237 C.3       1     CRI    0.0000
     47 C          10.7125   -4.4884   -1.1670 C.3       1     CRI    0.0000
     48 C          11.9857   -5.3090   -0.9044 C.3       1     CRI    0.0000
     49 C          13.2566   -4.4743   -1.1330 C.3       1     CRI    0.0000
     50 C          14.5376   -5.2815   -0.8670 C.3       1     CRI    0.0000
     51 C          15.8013   -4.4330   -1.0837 C.3       1     CRI    0.0000
     52 C          17.0876   -5.2312   -0.8160 C.3       1     CRI    0.0000
     53 C          18.3467   -4.3736   -1.0238 C.3       1     CRI    0.0000
     54 C          19.6360   -5.1668   -0.7559 C.3       1     CRI    0.0000
     55 C          20.8926   -4.3043   -0.9583 C.3       1     CRI    0.0000
     56 C          22.1833   -5.0948   -0.6910 C.3       1     CRI    0.0000
     57 C          23.4342   -4.2289   -0.8916 C.3       1     CRI    0.0000
     58 C          -3.9267   -2.2760   -1.8595 C.3       1     CRI    0.0000
     59 C          -4.0061   -2.6040    0.6442 C.3       1     CRI    0.0000
     60 C          -7.0074   -3.6153    0.3218 C.ar      1     CRI    0.0000
     61 C          -8.2570   -3.1302    0.3794 C.ar      1     CRI    0.0000
     62 C         -12.4473    2.2511   -0.6478 C.3       1     CRI    0.0000
     63 C         -12.2723    3.0734    0.6385 C.3       1     CRI    0.0000
     64 C         -10.6811    5.8538    1.8860 C.ar      1     CRI    0.0000
     65 C         -10.1532    7.7037    4.9719 C.ar      1     CRI    0.0000
     66 N         -10.0184    8.8515    5.4822 N.ar      1     CRI    0.0000
     67 H          -9.7915   11.1528    6.2766 H         1     CRI    0.0000
     68 H          -9.9905   11.8772    4.6208 H         1     CRI    0.0000
     69 H          -9.7446   12.0520    1.0460 H         1     CRI    0.0000
     70 H         -11.2770   11.0824   -0.5289 H         1     CRI    0.0000
     71 H         -12.0820   11.6278    0.9525 H         1     CRI    0.0000
     72 H         -11.8679    9.8927    0.7162 H         1     CRI    0.0000
     73 H          -5.4884    8.4053   -0.0746 H         1     CRI    0.0000
     74 H          -7.5606    7.7600   -1.1156 H         1     CRI    0.0000
     75 H         -10.5377    8.4714    1.8145 H         1     CRI    0.0000
     76 H         -10.2970    4.8611    4.8708 H         1     CRI    0.0000
     77 H         -11.0010    4.5827   -0.2377 H         1     CRI    0.0000
     78 H          -8.8275    3.4822    0.2312 H         1     CRI    0.0000
     79 H          -9.6465    2.1962    1.1854 H         1     CRI    0.0000
     80 H          -9.1737    1.4072   -1.1388 H         1     CRI    0.0000
     81 H         -10.0886    2.7657   -1.8305 H         1     CRI    0.0000
     82 H         -10.7761   -2.3831    0.2807 H         1     CRI    0.0000
     83 H         -10.8858   -2.5651   -1.5182 H         1     CRI    0.0000
     84 H          -8.7147   -2.4976   -2.8331 H         1     CRI    0.0000
     85 H          -6.4754   -3.3941   -2.9193 H         1     CRI    0.0000
     86 H          -1.5722   -3.3546   -2.1241 H         1     CRI    0.0000
     87 H          -1.4162   -2.7623   -0.4048 H         1     CRI    0.0000
     88 H          -0.5775   -5.0236    0.2758 H         1     CRI    0.0000
     89 H          -0.6990   -5.5822   -1.4525 H         1     CRI    0.0000
     90 H           1.7670   -5.3502    0.2261 H         1     CRI    0.0000
     91 H           1.6772   -5.8981   -1.5074 H         1     CRI    0.0000
     92 H           3.0853   -3.9311   -2.1924 H         1     CRI    0.0000
     93 H           3.1551   -3.3743   -0.4837 H         1     CRI    0.0000
     94 H           4.3237   -5.5230    0.1647 H         1     CRI    0.0000
     95 H           4.2720   -6.0644   -1.5507 H         1     CRI    0.0000
     96 H           5.6296   -4.0449   -2.2289 H         1     CRI    0.0000
     97 H           5.6686   -3.4952   -0.5170 H         1     CRI    0.0000
     98 H           6.8728   -5.6216    0.1344 H         1     CRI    0.0000
     99 H           6.8513   -6.1557   -1.5838 H         1     CRI    0.0000
    100 H           8.1750   -4.1052   -2.2371 H         1     CRI    0.0000
    101 H           8.1863   -3.5655   -0.5215 H         1     CRI    0.0000
    102 H           9.4231   -5.6732    0.1294 H         1     CRI    0.0000
    103 H           9.4274   -6.1979   -1.5918 H         1     CRI    0.0000
    104 H          10.7214   -4.1204   -2.2206 H         1     CRI    0.0000
    105 H          10.7092   -3.5926   -0.5013 H         1     CRI    0.0000
    106 H          11.9737   -5.6843    0.1464 H         1     CRI    0.0000
    107 H          11.9990   -6.1988   -1.5776 H         1     CRI    0.0000
    108 H          13.2682   -4.0993   -2.1841 H         1     CRI    0.0000
    109 H          13.2373   -3.5833   -0.4613 H         1     CRI    0.0000
    110 H          14.5235   -5.6627    0.1817 H         1     CRI    0.0000
    111 H          14.5646   -6.1677   -1.5447 H         1     CRI    0.0000
    112 H          15.8151   -4.0515   -2.1323 H         1     CRI    0.0000
    113 H          15.7705   -3.5465   -0.4065 H         1     CRI    0.0000
    114 H          17.0721   -5.6173    0.2309 H         1     CRI    0.0000
    115 H          17.1238   -6.1142   -1.4975 H         1     CRI    0.0000
    116 H          18.3618   -3.9868   -2.0705 H         1     CRI    0.0000
    117 H          18.3084   -3.4907   -0.3423 H         1     CRI    0.0000
    118 H          19.6198   -5.5564    0.2898 H         1     CRI    0.0000
    119 H          19.6774   -6.0474   -1.4401 H         1     CRI    0.0000
    120 H          20.9092   -3.9137   -2.0035 H         1     CRI    0.0000
    121 H          20.8513   -3.4239   -0.2737 H         1     CRI    0.0000
    122 H          22.1720   -5.4870    0.3541 H         1     CRI    0.0000
    123 H          22.2317   -5.9745   -1.3764 H         1     CRI    0.0000
    124 H          24.3616   -4.8147   -0.6950 H         1     CRI    0.0000
    125 H          23.4923   -3.8425   -1.9348 H         1     CRI    0.0000
    126 H          23.4329   -3.3549   -0.2008 H         1     CRI    0.0000
    127 H          -3.0741   -1.5664   -1.7763 H         1     CRI    0.0000
    128 H          -4.8323   -1.6297   -1.8545 H         1     CRI    0.0000
    129 H          -3.8729   -2.7774   -2.8526 H         1     CRI    0.0000
    130 H          -4.0617   -3.3467    1.4723 H         1     CRI    0.0000
    131 H          -3.1087   -1.9728    0.8263 H         1     CRI    0.0000
    132 H          -4.8797   -1.9201    0.7310 H         1     CRI    0.0000
    133 H          -6.5422   -3.9900    1.2493 H         1     CRI    0.0000
    134 H          -8.7769   -3.0972    1.3512 H         1     CRI    0.0000
    135 H         -13.4145    1.7018   -0.6097 H         1     CRI    0.0000
    136 H         -12.5182    2.9301   -1.5295 H         1     CRI    0.0000
    137 H         -12.2819    2.3811    1.5138 H         1     CRI    0.0000
    138 H         -13.1267    3.7804    0.7637 H         1     CRI    0.0000
    139 H         -10.7861    6.4558    0.9789 H         1     CRI    0.0000
    140 H         -10.0914    6.8860    5.7080 H         1     CRI    0.0000
@<TRIPOS>BOND
     1     1     2     1
     2     1    67     1
     3     1    68     1
     4     2     3     1
     5     2    66     2
     6     3     4     1
     7     3    16     2
     8     4     5     1
     9     5     6     1
    10     5     7     1
    11     5    69     1
    12     6    70     1
    13     6    71     1
    14     6    72     1
    15     7     8     1
    16     7    14     2
    17     8     9     1
    18     8    10     2
    19    10    11     1
    20    10    12     1
    21    12    13     2
    22    12    73     1
    23    13    14     1
    24    13    74     1
    25    14    15     1
    26    16    17     1
    27    16    75     1
    28    17    18     1
    29    17    65     2
    30    18    19     1
    31    18    64     2
    32    19    20     2
    33    19    76     1
    34    20    21     1
    35    21    22     1
    36    21    64     1
    37    22    23     1
    38    22    63     1
    39    22    77     1
    40    23    24     1
    41    23    78     1
    42    23    79     1
    43    24    25     1
    44    24    80     1
    45    24    81     1
    46    25    26     1
    47    25    62     1
    48    26    27     2
    49    26    28     1
    50    28    29     1
    51    29    30     1
    52    29    82     1
    53    29    83     1
    54    30    31     1
    55    30    61     2
    56    31    32     2
    57    31    84     1
    58    32    33     1
    59    32    85     1
    60    33    34     1
    61    33    60     2
    62    34    35     1
    63    35    36     1
    64    35    58     1
    65    35    59     1
    66    36    37     1
    67    37    38     1
    68    37    86     1
    69    37    87     1
    70    38    39     1
    71    38    88     1
    72    38    89     1
    73    39    40     1
    74    40    41     1
    75    40    90     1
    76    40    91     1
    77    41    42     1
    78    41    92     1
    79    41    93     1
    80    42    43     1
    81    42    94     1
    82    42    95     1
    83    43    44     1
    84    43    96     1
    85    43    97     1
    86    44    45     1
    87    44    98     1
    88    44    99     1
    89    45    46     1
    90    45   100     1
    91    45   101     1
    92    46    47     1
    93    46   102     1
    94    46   103     1
    95    47    48     1
    96    47   104     1
    97    47   105     1
    98    48    49     1
    99    48   106     1
   100    48   107     1
   101    49    50     1
   102    49   108     1
   103    49   109     1
   104    50    51     1
   105    50   110     1
   106    50   111     1
   107    51    52     1
   108    51   112     1
   109    51   113     1
   110    52    53     1
   111    52   114     1
   112    52   115     1
   113    53    54     1
   114    53   116     1
   115    53   117     1
   116    54    55     1
   117    54   118     1
   118    54   119     1
   119    55    56     1
   120    55   120     1
   121    55   121     1
   122    56    57     1
   123    56   122     1
   124    56   123     1
   125    57   124     1
   126    57   125     1
   127    57   126     1
   128    58   127     1
   129    58   128     1
   130    58   129     1
   131    59   130     1
   132    59   131     1
   133    59   132     1
   134    60    61     1
   135    60   133     1
   136    61   134     1
   137    62    63     1
   138    62   135     1
   139    62   136     1
   140    63   137     1
   141    63   138     1
   142    64   139     1
   143    65    66     1
   144    65   140     1
