@<TRIPOS>MOLECULE
DTX
138 143 1 0 0
SMALL
USER_CHARGES


@<TRIPOS>ATOM
      1 C          -3.2333    3.8343   -4.3576 C.3       1     DTX    0.0000
      2 C          -2.8328    3.9097   -2.8789 C.3       1     DTX    0.0000
      3 C          -1.3698    4.3486   -2.7017 C.3       1     DTX    0.0000
      4 C          -0.9574    4.3517   -1.2221 C.3       1     DTX    0.0000
      5 C           0.5294    4.6873   -1.0137 C.3       1     DTX    0.0000
      6 C           0.9623    4.3527    0.4141 C.3       1     DTX    0.0000
      7 O           2.3418    4.5924    0.5658 O.3       1     DTX    0.0000
      8 C           2.9798    3.8043    1.5563 C.3       1     DTX    0.0000
      9 C           4.3788    4.3853    1.7442 C.3       1     DTX    0.0000
     10 C           2.2082    3.8239    2.8722 C.3       1     DTX    0.0000
     11 O           3.0728    2.5419    0.9342 O.3       1     DTX    0.0000
     12 C           3.5080    1.4474    1.7061 C.3       1     DTX    0.0000
     13 C           2.3026    0.5312    1.9629 C.2       1     DTX    0.0000
     14 O           1.5500    0.6375    2.9048 O.2       1     DTX    0.0000
     15 O           2.1510   -0.3489    0.9398 O.3       1     DTX    0.0000
     16 C           0.8971   -0.9504    0.7245 C.3       1     DTX    0.0000
     17 C          -0.2278    0.0952    0.5938 C.3       1     DTX    0.0000
     18 C          -1.1824   -0.2278   -0.5696 C.3       1     DTX    0.0000
     19 O          -2.0741    0.8423   -0.7206 O.3       1     DTX    0.0000
     20 C          -2.0344   -1.4585   -0.1608 C.3       1     DTX    0.0000
     21 O          -2.8391   -1.0887    0.9296 O.3       1     DTX    0.0000
     22 C          -2.6991   -1.6087    2.1976 C.2       1     DTX    0.0000
     23 O          -1.8466   -2.4466    2.4210 O.2       1     DTX    0.0000
     24 C          -3.5242   -1.1740    3.1990 C.ar      1     DTX    0.0000
     25 C          -3.4312   -1.6495    4.4567 C.ar      1     DTX    0.0000
     26 C          -4.2531   -1.2083    5.4226 C.ar      1     DTX    0.0000
     27 C          -5.1839   -0.2829    5.1482 C.ar      1     DTX    0.0000
     28 C          -5.2867    0.1990    3.9014 C.ar      1     DTX    0.0000
     29 C          -4.4634   -0.2431    2.9378 C.ar      1     DTX    0.0000
     30 C          -2.9002   -2.1091   -1.2656 C.3       1     DTX    0.0000
     31 C          -2.3794   -3.4738   -1.8424 C.3       1     DTX    0.0000
     32 C          -1.6723   -4.4032   -0.8286 C.3       1     DTX    0.0000
     33 C          -1.3368   -3.1828   -2.9652 C.2       1     DTX    0.0000
     34 O          -1.6355   -3.3191   -4.1327 O.2       1     DTX    0.0000
     35 C           0.1202   -2.7222   -2.7386 C.3       1     DTX    0.0000
     36 O           0.9462   -3.8778   -2.7561 O.3       1     DTX    0.0000
     37 C           0.3615   -1.7188   -1.6252 C.2       1     DTX    0.0000
     38 C           0.9925   -1.9387   -0.4446 C.2       1     DTX    0.0000
     39 C           1.7475   -3.1835   -0.0200 C.3       1     DTX    0.0000
     40 C          -0.2943   -0.3525   -1.8389 C.3       1     DTX    0.0000
     41 C           0.8421    0.7109   -1.9474 C.3       1     DTX    0.0000
     42 C          -1.0086   -0.0715   -3.1958 C.3       1     DTX    0.0000
     43 C          -3.5436   -4.3072   -2.4495 C.3       1     DTX    0.0000
     44 O          -4.1134   -5.1624   -1.4819 O.3       1     DTX    0.0000
     45 C          -4.6565   -3.4655   -3.0645 C.3       1     DTX    0.0000
     46 C          -5.3514   -2.5771   -2.0471 C.3       1     DTX    0.0000
     47 O          -5.9663   -3.3167   -1.0165 O.3       1     DTX    0.0000
     48 C          -5.1393   -2.7164   -0.0348 C.3       1     DTX    0.0000
     49 C          -4.4104   -1.8613   -1.0752 C.3       1     DTX    0.0000
     50 O          -4.6498   -0.4860   -1.0201 O.3       1     DTX    0.0000
     51 C          -5.8507    0.1102   -0.7896 C.2       1     DTX    0.0000
     52 C          -5.6619    1.6166   -0.8059 C.3       1     DTX    0.0000
     53 O          -6.9117   -0.4368   -0.5983 O.2       1     DTX    0.0000
     54 C           4.6957    0.7410    1.0115 C.3       1     DTX    0.0000
     55 N           4.8192   -0.5915    1.6113 N.am      1     DTX    0.0000
     56 C           5.5616   -0.8560    2.7289 C.2       1     DTX    0.0000
     57 O           6.2197   -0.0069    3.2769 O.2       1     DTX    0.0000
     58 C           5.4497   -2.3017    3.2202 C.3       1     DTX    0.0000
     59 C           3.9894   -2.5541    3.6447 C.3       1     DTX    0.0000
     60 C           5.8423   -3.2582    2.0778 C.3       1     DTX    0.0000
     61 C           6.3790   -2.5409    4.4265 C.3       1     DTX    0.0000
     62 C           4.5757    0.6053   -0.5036 C.ar      1     DTX    0.0000
     63 C           4.2773   -0.5580   -1.1141 C.ar      1     DTX    0.0000
     64 C           4.1659   -0.6491   -2.4484 C.ar      1     DTX    0.0000
     65 C           4.3698    0.4314   -3.2150 C.ar      1     DTX    0.0000
     66 C           4.6948    1.5944   -2.6329 C.ar      1     DTX    0.0000
     67 C           4.8014    1.6702   -1.2974 C.ar      1     DTX    0.0000
     68 H          -4.2965    3.5187   -4.4671 H         1     DTX    0.0000
     69 H          -3.1186    4.8241   -4.8555 H         1     DTX    0.0000
     70 H          -2.6036    3.0969   -4.9063 H         1     DTX    0.0000
     71 H          -2.9830    2.9060   -2.4144 H         1     DTX    0.0000
     72 H          -3.5052    4.6242   -2.3469 H         1     DTX    0.0000
     73 H          -1.2230    5.3672   -3.1321 H         1     DTX    0.0000
     74 H          -0.7119    3.6471   -3.2679 H         1     DTX    0.0000
     75 H          -1.1642    3.3407   -0.8015 H         1     DTX    0.0000
     76 H          -1.5872    5.0738   -0.6507 H         1     DTX    0.0000
     77 H           0.7147    5.7643   -1.2365 H         1     DTX    0.0000
     78 H           1.1498    4.0891   -1.7232 H         1     DTX    0.0000
     79 H           0.7295    3.2812    0.5958 H         1     DTX    0.0000
     80 H           0.3993    4.9782    1.1442 H         1     DTX    0.0000
     81 H           4.9859    3.7982    2.4685 H         1     DTX    0.0000
     82 H           4.3246    5.4291    2.1292 H         1     DTX    0.0000
     83 H           4.9417    4.4158    0.7839 H         1     DTX    0.0000
     84 H           1.9751    4.8718    3.1694 H         1     DTX    0.0000
     85 H           1.2471    3.2678    2.8298 H         1     DTX    0.0000
     86 H           2.7929    3.3955    3.7153 H         1     DTX    0.0000
     87 H           3.8643    1.7752    2.7077 H         1     DTX    0.0000
     88 H           0.6647   -1.5686    1.6269 H         1     DTX    0.0000
     89 H          -0.7823    0.1942    1.5540 H         1     DTX    0.0000
     90 H           0.1809    1.1193    0.4548 H         1     DTX    0.0000
     91 H          -2.6436    0.8833    0.0539 H         1     DTX    0.0000
     92 H          -1.3356   -2.2357    0.1822 H         1     DTX    0.0000
     93 H          -2.6871   -2.4111    4.7430 H         1     DTX    0.0000
     94 H          -4.1653   -1.6071    6.4475 H         1     DTX    0.0000
     95 H          -5.8590    0.0789    5.9414 H         1     DTX    0.0000
     96 H          -6.0504    0.9605    3.6692 H         1     DTX    0.0000
     97 H          -4.5935    0.1890    1.9319 H         1     DTX    0.0000
     98 H          -2.8068   -1.4345   -2.1397 H         1     DTX    0.0000
     99 H          -2.2502   -4.5082    0.1167 H         1     DTX    0.0000
    100 H          -1.5141   -5.4207   -1.2533 H         1     DTX    0.0000
    101 H          -0.6585   -4.0688   -0.5434 H         1     DTX    0.0000
    102 H           0.4574   -2.1893   -3.6605 H         1     DTX    0.0000
    103 H           0.8857   -4.2939   -3.6197 H         1     DTX    0.0000
    104 H           1.1608   -3.7684    0.7229 H         1     DTX    0.0000
    105 H           2.0579   -3.8685   -0.8280 H         1     DTX    0.0000
    106 H           2.6992   -2.9048    0.4815 H         1     DTX    0.0000
    107 H           0.4302    1.7441   -1.9648 H         1     DTX    0.0000
    108 H           1.6103    0.6933   -1.1555 H         1     DTX    0.0000
    109 H           1.4462    0.5781   -2.8727 H         1     DTX    0.0000
    110 H          -1.4975    0.9287   -3.1927 H         1     DTX    0.0000
    111 H          -0.3026   -0.0577   -4.0557 H         1     DTX    0.0000
    112 H          -1.7830   -0.7771   -3.5355 H         1     DTX    0.0000
    113 H          -3.1553   -5.0135   -3.2227 H         1     DTX    0.0000
    114 H          -5.0637   -5.2225   -1.6003 H         1     DTX    0.0000
    115 H          -4.2392   -2.8170   -3.8699 H         1     DTX    0.0000
    116 H          -5.4143   -4.1278   -3.5470 H         1     DTX    0.0000
    117 H          -6.1096   -1.9248   -2.5347 H         1     DTX    0.0000
    118 H          -5.7443   -2.1786    0.7228 H         1     DTX    0.0000
    119 H          -4.4958   -3.4798    0.4502 H         1     DTX    0.0000
    120 H          -4.8817    1.9233   -0.0727 H         1     DTX    0.0000
    121 H          -5.3558    1.9540   -1.8221 H         1     DTX    0.0000
    122 H          -6.6086    2.1374   -0.5382 H         1     DTX    0.0000
    123 H           5.6298    1.3276    1.1892 H         1     DTX    0.0000
    124 H           4.2090   -1.3182    1.2367 H         1     DTX    0.0000
    125 H           3.8594   -3.5875    4.0383 H         1     DTX    0.0000
    126 H           3.6747   -1.8450    4.4440 H         1     DTX    0.0000
    127 H           3.2776   -2.4366    2.7976 H         1     DTX    0.0000
    128 H           5.8048   -4.3190    2.4142 H         1     DTX    0.0000
    129 H           6.8775   -3.0530    1.7215 H         1     DTX    0.0000
    130 H           5.1607   -3.1736    1.2022 H         1     DTX    0.0000
    131 H           6.1170   -1.8815    5.2849 H         1     DTX    0.0000
    132 H           6.3055   -3.5918    4.7874 H         1     DTX    0.0000
    133 H           7.4452   -2.3565    4.1625 H         1     DTX    0.0000
    134 H           4.1090   -1.4794   -0.5403 H         1     DTX    0.0000
    135 H           3.9060   -1.6135   -2.9170 H         1     DTX    0.0000
    136 H           4.2789    0.3622   -4.3115 H         1     DTX    0.0000
    137 H           4.8769    2.4875   -3.2538 H         1     DTX    0.0000
    138 H           5.0826    2.6393   -0.8544 H         1     DTX    0.0000
@<TRIPOS>BOND
     1     1     2     1
     2     1    68     1
     3     1    69     1
     4     1    70     1
     5     2     3     1
     6     2    71     1
     7     2    72     1
     8     3     4     1
     9     3    73     1
    10     3    74     1
    11     4     5     1
    12     4    75     1
    13     4    76     1
    14     5     6     1
    15     5    77     1
    16     5    78     1
    17     6     7     1
    18     6    79     1
    19     6    80     1
    20     7     8     1
    21     8     9     1
    22     8    10     1
    23     8    11     1
    24     9    81     1
    25     9    82     1
    26     9    83     1
    27    10    84     1
    28    10    85     1
    29    10    86     1
    30    11    12     1
    31    12    13     1
    32    12    54     1
    33    12    87     1
    34    13    14     2
    35    13    15     1
    36    15    16     1
    37    16    17     1
    38    16    38     1
    39    16    88     1
    40    17    18     1
    41    17    89     1
    42    17    90     1
    43    18    19     1
    44    18    20     1
    45    18    40     1
    46    19    91     1
    47    20    21     1
    48    20    30     1
    49    20    92     1
    50    21    22     1
    51    22    23     2
    52    22    24     1
    53    24    25     1
    54    24    29     2
    55    25    26     2
    56    25    93     1
    57    26    27     1
    58    26    94     1
    59    27    28     2
    60    27    95     1
    61    28    29     1
    62    28    96     1
    63    29    97     1
    64    30    31     1
    65    30    49     1
    66    30    98     1
    67    31    32     1
    68    31    33     1
    69    31    43     1
    70    32    99     1
    71    32   100     1
    72    32   101     1
    73    33    34     2
    74    33    35     1
    75    35    36     1
    76    35    37     1
    77    35   102     1
    78    36   103     1
    79    37    38     2
    80    37    40     1
    81    38    39     1
    82    39   104     1
    83    39   105     1
    84    39   106     1
    85    40    41     1
    86    40    42     1
    87    41   107     1
    88    41   108     1
    89    41   109     1
    90    42   110     1
    91    42   111     1
    92    42   112     1
    93    43    44     1
    94    43    45     1
    95    43   113     1
    96    44   114     1
    97    45    46     1
    98    45   115     1
    99    45   116     1
   100    46    47     1
   101    46    49     1
   102    46   117     1
   103    47    48     1
   104    48    49     1
   105    48   118     1
   106    48   119     1
   107    49    50     1
   108    50    51     1
   109    51    52     1
   110    51    53     2
   111    52   120     1
   112    52   121     1
   113    52   122     1
   114    54    55     1
   115    54    62     1
   116    54   123     1
   117    55    56     1
   118    55   124     1
   119    56    57     2
   120    56    58     1
   121    58    59     1
   122    58    60     1
   123    58    61     1
   124    59   125     1
   125    59   126     1
   126    59   127     1
   127    60   128     1
   128    60   129     1
   129    60   130     1
   130    61   131     1
   131    61   132     1
   132    61   133     1
   133    62    63     1
   134    62    67     2
   135    63    64     2
   136    63   134     1
   137    64    65     1
   138    64   135     1
   139    65    66     2
   140    65   136     1
   141    66    67     1
   142    66   137     1
   143    67   138     1
