@<TRIPOS>MOLECULE
DEX
121 124 1 0 0
SMALL
USER_CHARGES


@<TRIPOS>ATOM
      1 C          20.2967   11.5800    3.6651 C.3       1     DEX    0.0000
      2 C          19.6280   10.3792    2.9828 C.3       1     DEX    0.0000
      3 C          18.1037   10.3859    3.1796 C.3       1     DEX    0.0000
      4 C          17.4291    9.1842    2.4980 C.3       1     DEX    0.0000
      5 C          15.9046    9.1932    2.6967 C.3       1     DEX    0.0000
      6 C          15.2262    7.9921    2.0174 C.3       1     DEX    0.0000
      7 C          13.7023    8.0059    2.2204 C.3       1     DEX    0.0000
      8 C          13.0164    6.8066    1.5454 C.3       1     DEX    0.0000
      9 C          11.4937    6.8284    1.7557 C.3       1     DEX    0.0000
     10 C          10.7962    5.6321    1.0872 C.3       1     DEX    0.0000
     11 C           9.2751    5.6661    1.3079 C.3       1     DEX    0.0000
     12 C           8.5615    4.4746    0.6480 C.3       1     DEX    0.0000
     13 C           7.0429    4.5250    0.8819 C.3       1     DEX    0.0000
     14 C           6.3088    3.3404    0.2320 C.3       1     DEX    0.0000
     15 C           4.7935    3.4117    0.4815 C.3       1     DEX    0.0000
     16 C           4.0350    2.2366   -0.1571 C.3       1     DEX    0.0000
     17 C           2.5241    2.3324    0.1102 C.3       1     DEX    0.0000
     18 C           1.7441    1.1727   -0.5117 C.3       1     DEX    0.0000
     19 O           0.3805    1.3566   -0.2169 O.3       1     DEX    0.0000
     20 C          -0.4773    0.2832   -0.5505 C.3       1     DEX    0.0000
     21 C          -1.8862    0.7948   -0.2504 C.3       1     DEX    0.0000
     22 C          -0.3542   -0.1199   -2.0158 C.3       1     DEX    0.0000
     23 O          -0.0937   -0.7713    0.3026 O.3       1     DEX    0.0000
     24 C          -1.0647   -1.7732    0.5307 C.3       1     DEX    0.0000
     25 C          -0.3814   -3.0399    1.0462 C.2       1     DEX    0.0000
     26 O          -0.2517   -3.2088    2.2382 O.2       1     DEX    0.0000
     27 C           0.1060   -4.0567    0.0041 C.3       1     DEX    0.0000
     28 O           0.4049   -3.3687   -1.1933 O.3       1     DEX    0.0000
     29 C           1.3634   -4.8447    0.4412 C.3       1     DEX    0.0000
     30 C           2.6914   -4.1725    0.0619 C.3       1     DEX    0.0000
     31 C           1.2194   -6.2679   -0.1505 C.3       1     DEX    0.0000
     32 C          -0.0453   -6.1963   -1.0138 C.3       1     DEX    0.0000
     33 C          -0.7897   -7.4873   -1.3905 C.3       1     DEX    0.0000
     34 C           0.1890   -8.5058   -2.0033 C.3       1     DEX    0.0000
     35 C          -0.5400   -9.7920   -2.3989 C.3       1     DEX    0.0000
     36 C          -1.6785   -9.4107   -3.3123 C.2       1     DEX    0.0000
     37 C          -1.7001   -9.8342   -4.5865 C.2       1     DEX    0.0000
     38 C          -2.6663   -9.5116   -5.4835 C.2       1     DEX    0.0000
     39 O          -2.6338   -9.9301   -6.6231 O.2       1     DEX    0.0000
     40 C          -3.6826   -8.7221   -5.0546 C.2       1     DEX    0.0000
     41 C          -3.7569   -8.2344   -3.8093 C.2       1     DEX    0.0000
     42 C          -2.7188   -8.4666   -2.7295 C.3       1     DEX    0.0000
     43 C          -3.4709   -9.1586   -1.5725 C.3       1     DEX    0.0000
     44 C          -1.9779   -7.1721   -2.3221 C.3       1     DEX    0.0000
     45 F          -1.4620   -6.6571   -3.4430 F         1     DEX    0.0000
     46 C          -2.8486   -6.0861   -1.6874 C.3       1     DEX    0.0000
     47 O          -3.8565   -5.6463   -2.5693 O.3       1     DEX    0.0000
     48 C          -2.0803   -4.8327   -1.2401 C.3       1     DEX    0.0000
     49 C          -0.9293   -5.1721   -0.2779 C.3       1     DEX    0.0000
     50 C          -1.5178   -5.6974    1.0549 C.3       1     DEX    0.0000
     51 H          21.4007   11.5620    3.5142 H         1     DEX    0.0000
     52 H          19.9141   12.5413    3.2521 H         1     DEX    0.0000
     53 H          20.1048   11.5768    4.7625 H         1     DEX    0.0000
     54 H          20.0548    9.4356    3.3997 H         1     DEX    0.0000
     55 H          19.8644   10.3982    1.8920 H         1     DEX    0.0000
     56 H          17.6826   11.3320    2.7635 H         1     DEX    0.0000
     57 H          17.8730   10.3698    4.2713 H         1     DEX    0.0000
     58 H          17.8506    8.2385    2.9143 H         1     DEX    0.0000
     59 H          17.6598    9.2008    1.4062 H         1     DEX    0.0000
     60 H          15.4837   10.1392    2.2803 H         1     DEX    0.0000
     61 H          15.6749    9.1779    3.7887 H         1     DEX    0.0000
     62 H          15.6463    7.0457    2.4335 H         1     DEX    0.0000
     63 H          15.4541    8.0072    0.9251 H         1     DEX    0.0000
     64 H          13.2835    8.9529    1.8042 H         1     DEX    0.0000
     65 H          13.4761    7.9931    3.3132 H         1     DEX    0.0000
     66 H          13.4340    5.8590    1.9613 H         1     DEX    0.0000
     67 H          13.2396    6.8191    0.4521 H         1     DEX    0.0000
     68 H          11.0779    7.7769    1.3399 H         1     DEX    0.0000
     69 H          11.2731    6.8192    2.8496 H         1     DEX    0.0000
     70 H          11.2096    4.6824    1.5024 H         1     DEX    0.0000
     71 H          11.0122    5.6409   -0.0075 H         1     DEX    0.0000
     72 H           8.8643    6.6172    0.8930 H         1     DEX    0.0000
     73 H           9.0624    5.6615    2.4035 H         1     DEX    0.0000
     74 H           8.9691    3.5221    1.0622 H         1     DEX    0.0000
     75 H           8.7684    4.4787   -0.4485 H         1     DEX    0.0000
     76 H           6.6388    5.4797    0.4684 H         1     DEX    0.0000
     77 H           6.8402    4.5255    1.9794 H         1     DEX    0.0000
     78 H           6.7085    2.3839    0.6449 H         1     DEX    0.0000
     79 H           6.5048    3.3391   -0.8665 H         1     DEX    0.0000
     80 H           4.3984    4.3710    0.0702 H         1     DEX    0.0000
     81 H           4.6027    3.4177    1.5812 H         1     DEX    0.0000
     82 H           4.4247    1.2751    0.2538 H         1     DEX    0.0000
     83 H           4.2183    2.2295   -1.2577 H         1     DEX    0.0000
     84 H           2.1369    3.2965   -0.2987 H         1     DEX    0.0000
     85 H           2.3457    2.3442    1.2123 H         1     DEX    0.0000
     86 H           2.1070    0.2094   -0.0882 H         1     DEX    0.0000
     87 H           1.8956    1.1817   -1.6145 H         1     DEX    0.0000
     88 H          -2.6838    0.0730   -0.5332 H         1     DEX    0.0000
     89 H          -2.0948    1.7249   -0.8273 H         1     DEX    0.0000
     90 H          -2.0083    1.0443    0.8285 H         1     DEX    0.0000
     91 H          -0.4349    0.7684   -2.6828 H         1     DEX    0.0000
     92 H           0.6062   -0.6368   -2.2370 H         1     DEX    0.0000
     93 H          -1.1621   -0.8230   -2.3175 H         1     DEX    0.0000
     94 H          -1.7906   -1.4130    1.2943 H         1     DEX    0.0000
     95 H          -1.6175   -2.0158   -0.4004 H         1     DEX    0.0000
     96 H           0.8577   -3.9225   -1.8289 H         1     DEX    0.0000
     97 H           1.3812   -4.9579    1.5533 H         1     DEX    0.0000
     98 H           2.7390   -3.1344    0.4643 H         1     DEX    0.0000
     99 H           3.5564   -4.7370    0.4797 H         1     DEX    0.0000
    100 H           2.8337   -4.1235   -1.0409 H         1     DEX    0.0000
    101 H           2.1107   -6.5722   -0.7445 H         1     DEX    0.0000
    102 H           1.0824   -7.0239    0.6572 H         1     DEX    0.0000
    103 H           0.2884   -5.7506   -1.9845 H         1     DEX    0.0000
    104 H          -1.1671   -7.9470   -0.4486 H         1     DEX    0.0000
    105 H           0.9988   -8.7594   -1.2791 H         1     DEX    0.0000
    106 H           0.6807   -8.0646   -2.9023 H         1     DEX    0.0000
    107 H           0.1758  -10.4910   -2.8901 H         1     DEX    0.0000
    108 H          -0.9291  -10.3244   -1.5025 H         1     DEX    0.0000
    109 H          -0.8828  -10.4883   -4.9367 H         1     DEX    0.0000
    110 H          -4.4975   -8.4804   -5.7603 H         1     DEX    0.0000
    111 H          -4.6562   -7.6531   -3.5580 H         1     DEX    0.0000
    112 H          -3.8977  -10.1323   -1.9064 H         1     DEX    0.0000
    113 H          -2.8320   -9.3733   -0.6903 H         1     DEX    0.0000
    114 H          -4.3233   -8.5456   -1.2038 H         1     DEX    0.0000
    115 H          -3.3922   -6.5064   -0.8133 H         1     DEX    0.0000
    116 H          -4.6418   -6.1889   -2.4748 H         1     DEX    0.0000
    117 H          -1.6946   -4.3245   -2.1538 H         1     DEX    0.0000
    118 H          -2.7744   -4.1124   -0.7480 H         1     DEX    0.0000
    119 H          -2.1334   -6.6134    0.9481 H         1     DEX    0.0000
    120 H          -0.7383   -5.9517    1.8043 H         1     DEX    0.0000
    121 H          -2.1893   -4.9411    1.5194 H         1     DEX    0.0000
@<TRIPOS>BOND
     1     1     2     1
     2     1    51     1
     3     1    52     1
     4     1    53     1
     5     2     3     1
     6     2    54     1
     7     2    55     1
     8     3     4     1
     9     3    56     1
    10     3    57     1
    11     4     5     1
    12     4    58     1
    13     4    59     1
    14     5     6     1
    15     5    60     1
    16     5    61     1
    17     6     7     1
    18     6    62     1
    19     6    63     1
    20     7     8     1
    21     7    64     1
    22     7    65     1
    23     8     9     1
    24     8    66     1
    25     8    67     1
    26     9    10     1
    27     9    68     1
    28     9    69     1
    29    10    11     1
    30    10    70     1
    31    10    71     1
    32    11    12     1
    33    11    72     1
    34    11    73     1
    35    12    13     1
    36    12    74     1
    37    12    75     1
    38    13    14     1
    39    13    76     1
    40    13    77     1
    41    14    15     1
    42    14    78     1
    43    14    79     1
    44    15    16     1
    45    15    80     1
    46    15    81     1
    47    16    17     1
    48    16    82     1
    49    16    83     1
    50    17    18     1
    51    17    84     1
    52    17    85     1
    53    18    19     1
    54    18    86     1
    55    18    87     1
    56    19    20     1
    57    20    21     1
    58    20    22     1
    59    20    23     1
    60    21    88     1
    61    21    89     1
    62    21    90     1
    63    22    91     1
    64    22    92     1
    65    22    93     1
    66    23    24     1
    67    24    25     1
    68    24    94     1
    69    24    95     1
    70    25    26     2
    71    25    27     1
    72    27    28     1
    73    27    29     1
    74    27    49     1
    75    28    96     1
    76    29    30     1
    77    29    31     1
    78    29    97     1
    79    30    98     1
    80    30    99     1
    81    30   100     1
    82    31    32     1
    83    31   101     1
    84    31   102     1
    85    32    33     1
    86    32    49     1
    87    32   103     1
    88    33    34     1
    89    33    44     1
    90    33   104     1
    91    34    35     1
    92    34   105     1
    93    34   106     1
    94    35    36     1
    95    35   107     1
    96    35   108     1
    97    36    37     2
    98    36    42     1
    99    37    38     1
   100    37   109     1
   101    38    39     2
   102    38    40     1
   103    40    41     2
   104    40   110     1
   105    41    42     1
   106    41   111     1
   107    42    43     1
   108    42    44     1
   109    43   112     1
   110    43   113     1
   111    43   114     1
   112    44    45     1
   113    44    46     1
   114    46    47     1
   115    46    48     1
   116    46   115     1
   117    47   116     1
   118    48    49     1
   119    48   117     1
   120    48   118     1
   121    49    50     1
   122    50   119     1
   123    50   120     1
   124    50   121     1
