@<TRIPOS>MOLECULE
DTX
199 205 1 0 0
SMALL
USER_CHARGES


@<TRIPOS>ATOM
      1 C          -5.4585    8.0400   -1.5523 C.2       1     DTX    0.0000
      2 C          -5.1679    7.5316   -0.1546 C.3       1     DTX    0.0000
      3 C          -5.3119    8.6133    0.9237 C.3       1     DTX    0.0000
      4 C          -5.3528   10.0696    0.4234 C.3       1     DTX    0.0000
      5 C          -6.4804   10.1194   -0.6394 C.3       1     DTX    0.0000
      6 C          -5.9352    9.2796   -1.7821 C.2       1     DTX    0.0000
      7 O          -3.8841    6.9481   -0.1410 O.3       1     DTX    0.0000
      8 C          -3.5424    6.1565    0.9141 C.2       1     DTX    0.0000
      9 C          -2.1586    5.5306    0.6928 C.3       1     DTX    0.0000
     10 O          -4.2325    5.9400    1.8859 O.2       1     DTX    0.0000
     11 C          -1.9875    4.9552   -0.7220 C.3       1     DTX    0.0000
     12 O          -1.1592    6.4891    0.9543 O.3       1     DTX    0.0000
     13 N          -1.8059    6.0502   -1.6808 N.am      1     DTX    0.0000
     14 C          -0.8264    3.9786   -0.7835 C.ar      1     DTX    0.0000
     15 C          -1.8540    5.8674   -3.0339 C.2       1     DTX    0.0000
     16 C          -5.0857    7.0864   -2.6642 C.3       1     DTX    0.0000
     17 C           0.4209    4.3669   -1.1062 C.ar      1     DTX    0.0000
     18 C           1.4348    3.4886   -1.1443 C.ar      1     DTX    0.0000
     19 C           1.2155    2.1963   -0.8612 C.ar      1     DTX    0.0000
     20 C          -0.0213    1.7937   -0.5356 C.ar      1     DTX    0.0000
     21 C          -1.0277    2.6797   -0.4944 C.ar      1     DTX    0.0000
     22 C          -7.8203    9.4310   -0.2404 C.3       1     DTX    0.0000
     23 C          -6.9446   11.5673   -0.9392 C.3       1     DTX    0.0000
     24 C          -5.8875    9.8734   -3.1569 C.3       1     DTX    0.0000
     25 C          -5.1353   11.1931   -3.1868 C.2       1     DTX    0.0000
     26 C          -4.0178   10.7848    0.0008 C.3       1     DTX    0.0000
     27 O          -7.2027   10.0237   -3.6900 O.3       1     DTX    0.0000
     28 O          -5.6737   12.0638   -3.8381 O.2       1     DTX    0.0000
     29 C          -3.7201   11.4283   -2.6011 C.3       1     DTX    0.0000
     30 C          -3.2416   10.5725   -1.3554 C.3       1     DTX    0.0000
     31 C          -1.4207   11.5461   -3.6911 C.3       1     DTX    0.0000
     32 C          -2.8466   11.0407   -3.8143 C.3       1     DTX    0.0000
     33 C          -0.7859   11.0232   -2.4130 C.3       1     DTX    0.0000
     34 C          -1.6760   10.5656   -1.2340 C.3       1     DTX    0.0000
     35 C          -1.0193   11.7812   -0.5517 C.3       1     DTX    0.0000
     36 O          -0.2043   12.0673   -1.6668 O.3       1     DTX    0.0000
     37 C          -3.6031   12.9616   -2.3691 C.3       1     DTX    0.0000
     38 O          -3.3980   11.5236   -5.0247 O.3       1     DTX    0.0000
     39 O          -1.2311    9.3596   -0.6777 O.3       1     DTX    0.0000
     40 O          -3.1873   11.0596    1.1040 O.3       1     DTX    0.0000
     41 C          -2.5390   10.1107    1.8471 C.2       1     DTX    0.0000
     42 O          -2.5520    8.9618    1.4671 O.2       1     DTX    0.0000
     43 C          -1.8781   10.4464    2.9965 C.ar      1     DTX    0.0000
     44 C          -1.8551   11.7286    3.4090 C.ar      1     DTX    0.0000
     45 C          -1.2066   12.0807    4.5305 C.ar      1     DTX    0.0000
     46 C          -0.5671   11.1542    5.2588 C.ar      1     DTX    0.0000
     47 C          -0.5809    9.8747    4.8581 C.ar      1     DTX    0.0000
     48 C          -1.2308    9.5244    3.7367 C.ar      1     DTX    0.0000
     49 O          -5.8126   10.8074    1.5352 O.3       1     DTX    0.0000
     50 C           0.0248    8.8518   -0.8588 C.2       1     DTX    0.0000
     51 O           0.2594    7.9107   -1.5830 O.2       1     DTX    0.0000
     52 C           1.1005    9.5040   -0.0086 C.3       1     DTX    0.0000
     53 O          -1.5869    6.9590   -3.8028 O.3       1     DTX    0.0000
     54 O          -2.0679    4.7708   -3.4921 O.2       1     DTX    0.0000
     55 C          -1.0038    6.8382   -5.0651 C.3       1     DTX    0.0000
     56 C          -0.4520    8.2308   -5.4112 C.3       1     DTX    0.0000
     57 C           0.1690    5.8476   -5.0641 C.3       1     DTX    0.0000
     58 C          -2.0619    6.4626   -6.1098 C.3       1     DTX    0.0000
     59 C          -0.0222    6.1357    1.6293 C.2       1     DTX    0.0000
     60 O           0.8089    6.9897    1.8709 O.2       1     DTX    0.0000
     61 O           0.1714    4.8392    2.0105 O.3       1     DTX    0.0000
     62 C           1.3732    4.4713    2.6514 C.3       1     DTX    0.0000
     63 C           1.3897    2.9676    2.8236 C.ar      1     DTX    0.0000
     64 C           0.4227    2.3562    3.5271 C.ar      1     DTX    0.0000
     65 C           0.4123    1.0225    3.6663 C.ar      1     DTX    0.0000
     66 C           1.3252    0.2330    3.0683 C.ar      1     DTX    0.0000
     67 C           2.3396    0.8680    2.4502 C.ar      1     DTX    0.0000
     68 C           2.3628    2.2016    2.3033 C.ar      1     DTX    0.0000
     69 O           1.3267   -1.1256    3.2592 O.3       1     DTX    0.0000
     70 C           0.6862   -1.9097    2.2696 C.3       1     DTX    0.0000
     71 O           0.8067   -3.1989    2.8451 O.3       1     DTX    0.0000
     72 C          -0.7629   -1.4663    2.0911 C.3       1     DTX    0.0000
     73 C           1.4627   -1.8625    0.9583 C.3       1     DTX    0.0000
     74 C          -0.0981   -4.1699    2.3824 C.3       1     DTX    0.0000
     75 C           0.3149   -5.5288    2.9313 C.3       1     DTX    0.0000
     76 O          -0.6253   -6.4815    2.4986 O.3       1     DTX    0.0000
     77 C          10.0526  -26.4125   -0.5825 C.3       1     DTX    0.0000
     78 C           8.8777  -25.6693    0.0671 C.3       1     DTX    0.0000
     79 C           8.9046  -24.1662   -0.2529 C.3       1     DTX    0.0000
     80 C           7.7313  -23.4179    0.4004 C.3       1     DTX    0.0000
     81 C           7.7568  -21.9145    0.0795 C.3       1     DTX    0.0000
     82 C           6.5884  -21.1664    0.7417 C.3       1     DTX    0.0000
     83 C           6.6105  -19.6629    0.4211 C.3       1     DTX    0.0000
     84 C           5.4488  -18.9160    1.0963 C.3       1     DTX    0.0000
     85 C           5.4648  -17.4124    0.7757 C.3       1     DTX    0.0000
     86 C           4.3105  -16.6682    1.4663 C.3       1     DTX    0.0000
     87 C           4.3158  -15.1651    1.1436 C.3       1     DTX    0.0000
     88 C           3.1676  -14.4258    1.8496 C.3       1     DTX    0.0000
     89 C           3.1561  -12.9241    1.5205 C.3       1     DTX    0.0000
     90 C           2.0106  -12.1923    2.2385 C.3       1     DTX    0.0000
     91 C           1.9744  -10.6939    1.8962 C.3       1     DTX    0.0000
     92 C           0.8263   -9.9723    2.6207 C.3       1     DTX    0.0000
     93 C           0.7548   -8.4799    2.2552 C.3       1     DTX    0.0000
     94 C          -0.3903   -7.7795    2.9893 C.3       1     DTX    0.0000
     95 H          -5.9026    6.7070    0.0208 H         1     DTX    0.0000
     96 H          -6.2729    8.4090    1.4518 H         1     DTX    0.0000
     97 H          -4.6498    8.4754    1.7966 H         1     DTX    0.0000
     98 H          -2.1119    4.6998    1.4342 H         1     DTX    0.0000
     99 H          -2.9292    4.4138   -0.9856 H         1     DTX    0.0000
    100 H          -1.5698    6.9787   -1.3221 H         1     DTX    0.0000
    101 H          -5.1505    6.0260   -2.3325 H         1     DTX    0.0000
    102 H          -5.7731    7.1577   -3.5352 H         1     DTX    0.0000
    103 H          -4.0484    7.2919   -3.0028 H         1     DTX    0.0000
    104 H           0.6358    5.4210   -1.3359 H         1     DTX    0.0000
    105 H           2.4508    3.8294   -1.4049 H         1     DTX    0.0000
    106 H           2.0459    1.4715   -0.8899 H         1     DTX    0.0000
    107 H          -0.2111    0.7345   -0.2986 H         1     DTX    0.0000
    108 H          -2.0349    2.3280   -0.2156 H         1     DTX    0.0000
    109 H          -8.2449    9.8569    0.6963 H         1     DTX    0.0000
    110 H          -8.5899    9.5634   -1.0348 H         1     DTX    0.0000
    111 H          -7.7634    8.3302   -0.1080 H         1     DTX    0.0000
    112 H          -6.1408   12.2694   -1.2188 H         1     DTX    0.0000
    113 H          -7.7036   11.6181   -1.7499 H         1     DTX    0.0000
    114 H          -7.4263   12.0289   -0.0482 H         1     DTX    0.0000
    115 H          -5.3252    9.2575   -3.8916 H         1     DTX    0.0000
    116 H          -4.3898   11.8229   -0.1819 H         1     DTX    0.0000
    117 H          -7.2361   10.8400   -4.1970 H         1     DTX    0.0000
    118 H          -3.4511    9.5140   -1.6396 H         1     DTX    0.0000
    119 H          -1.3882   12.6564   -3.7500 H         1     DTX    0.0000
    120 H          -0.8263   11.2104   -4.5739 H         1     DTX    0.0000
    121 H          -2.8236    9.9279   -3.9084 H         1     DTX    0.0000
    122 H           0.0182   10.3065   -2.6903 H         1     DTX    0.0000
    123 H          -0.3967   11.5763    0.3411 H         1     DTX    0.0000
    124 H          -1.6770   12.6447   -0.3341 H         1     DTX    0.0000
    125 H          -4.3600   13.3621   -1.6634 H         1     DTX    0.0000
    126 H          -2.6245   13.2848   -1.9738 H         1     DTX    0.0000
    127 H          -3.7114   13.5534   -3.3047 H         1     DTX    0.0000
    128 H          -4.0370   12.2292   -4.8751 H         1     DTX    0.0000
    129 H          -2.3602   12.5297    2.8439 H         1     DTX    0.0000
    130 H          -1.1959   13.1351    4.8547 H         1     DTX    0.0000
    131 H          -0.0326   11.4425    6.1792 H         1     DTX    0.0000
    132 H          -0.0543    9.1094    5.4531 H         1     DTX    0.0000
    133 H          -1.2044    8.4580    3.4576 H         1     DTX    0.0000
    134 H          -6.6533   10.4706    1.8486 H         1     DTX    0.0000
    135 H           1.5103   10.4130   -0.4986 H         1     DTX    0.0000
    136 H           0.7296    9.7468    1.0122 H         1     DTX    0.0000
    137 H           1.9579    8.8051    0.1174 H         1     DTX    0.0000
    138 H           0.0533    8.2409   -6.4032 H         1     DTX    0.0000
    139 H          -1.2693    8.9844   -5.4541 H         1     DTX    0.0000
    140 H           0.2879    8.5760   -4.6533 H         1     DTX    0.0000
    141 H           0.7460    5.9180   -6.0138 H         1     DTX    0.0000
    142 H          -0.1432    4.7846   -4.9835 H         1     DTX    0.0000
    143 H           0.8743    6.0618   -4.2287 H         1     DTX    0.0000
    144 H          -2.9208    7.1717   -6.0874 H         1     DTX    0.0000
    145 H          -1.6313    6.4865   -7.1364 H         1     DTX    0.0000
    146 H          -2.4721    5.4407   -5.9603 H         1     DTX    0.0000
    147 H           2.2334    4.8075    2.0293 H         1     DTX    0.0000
    148 H           1.4231    4.9626    3.6500 H         1     DTX    0.0000
    149 H          -0.3709    2.9567    4.0022 H         1     DTX    0.0000
    150 H          -0.3833    0.5598    4.2747 H         1     DTX    0.0000
    151 H           3.1715    0.2754    2.0335 H         1     DTX    0.0000
    152 H           3.1962    2.6671    1.7516 H         1     DTX    0.0000
    153 H          -1.2954   -2.0631    1.3179 H         1     DTX    0.0000
    154 H          -0.8332   -0.4167    1.7308 H         1     DTX    0.0000
    155 H          -1.3348   -1.5321    3.0445 H         1     DTX    0.0000
    156 H           2.5284   -2.1515    1.1043 H         1     DTX    0.0000
    157 H           1.0320   -2.5501    0.1974 H         1     DTX    0.0000
    158 H           1.4432   -0.8489    0.5018 H         1     DTX    0.0000
    159 H          -1.1220   -3.9342    2.7531 H         1     DTX    0.0000
    160 H          -0.0910   -4.2036    1.2698 H         1     DTX    0.0000
    161 H           1.3271   -5.7935    2.5512 H         1     DTX    0.0000
    162 H           0.3303   -5.4983    4.0454 H         1     DTX    0.0000
    163 H          10.0192  -27.5003   -0.3424 H         1     DTX    0.0000
    164 H          10.0294  -26.3095   -1.6915 H         1     DTX    0.0000
    165 H          11.0285  -26.0156   -0.2205 H         1     DTX    0.0000
    166 H           8.9165  -25.8171    1.1730 H         1     DTX    0.0000
    167 H           7.9185  -26.1115   -0.2944 H         1     DTX    0.0000
    168 H           8.8649  -24.0237   -1.3590 H         1     DTX    0.0000
    169 H           9.8672  -23.7301    0.1057 H         1     DTX    0.0000
    170 H           7.7729  -23.5605    1.5064 H         1     DTX    0.0000
    171 H           6.7688  -23.8556    0.0433 H         1     DTX    0.0000
    172 H           7.7088  -21.7714   -1.0262 H         1     DTX    0.0000
    173 H           8.7216  -21.4778    0.4314 H         1     DTX    0.0000
    174 H           6.6387  -21.3090    1.8474 H         1     DTX    0.0000
    175 H           5.6233  -21.6044    0.3923 H         1     DTX    0.0000
    176 H           6.5508  -19.5193   -0.6840 H         1     DTX    0.0000
    177 H           7.5788  -19.2260    0.7631 H         1     DTX    0.0000
    178 H           5.5119  -19.0585    2.2014 H         1     DTX    0.0000
    179 H           4.4804  -19.3554    0.7579 H         1     DTX    0.0000
    180 H           5.3905  -17.2688   -0.3285 H         1     DTX    0.0000
    181 H           6.4366  -16.9738    1.1053 H         1     DTX    0.0000
    182 H           4.3897  -16.8090    2.5706 H         1     DTX    0.0000
    183 H           3.3389  -17.1116    1.1423 H         1     DTX    0.0000
    184 H           4.2253  -15.0234    0.0404 H         1     DTX    0.0000
    185 H           5.2900  -14.7214    1.4589 H         1     DTX    0.0000
    186 H           3.2650  -14.5613    2.9530 H         1     DTX    0.0000
    187 H           2.1944  -14.8776    1.5427 H         1     DTX    0.0000
    188 H           3.0491  -12.7885    0.4180 H         1     DTX    0.0000
    189 H           4.1305  -12.4703    1.8203 H         1     DTX    0.0000
    190 H           2.1267  -12.3168    3.3414 H         1     DTX    0.0000
    191 H           1.0384  -12.6589    1.9508 H         1     DTX    0.0000
    192 H           1.8521  -10.5704    0.7939 H         1     DTX    0.0000
    193 H           2.9459  -10.2238    2.1798 H         1     DTX    0.0000
    194 H           0.9605  -10.0763    3.7238 H         1     DTX    0.0000
    195 H          -0.1397  -10.4640    2.3546 H         1     DTX    0.0000
    196 H           0.6083   -8.3783    1.1534 H         1     DTX    0.0000
    197 H           1.7298   -8.0041    2.5120 H         1     DTX    0.0000
    198 H          -0.2262   -7.7537    4.0896 H         1     DTX    0.0000
    199 H          -1.3323   -8.3502    2.8106 H         1     DTX    0.0000
@<TRIPOS>BOND
     1     1     2     1
     2     1     6     2
     3     1    16     1
     4     2     3     1
     5     2     7     1
     6     2    95     1
     7     3     4     1
     8     3    96     1
     9     3    97     1
    10     4     5     1
    11     4    26     1
    12     4    49     1
    13     5     6     1
    14     5    22     1
    15     5    23     1
    16     6    24     1
    17     7     8     1
    18     8     9     1
    19     8    10     2
    20     9    11     1
    21     9    12     1
    22     9    98     1
    23    11    13     1
    24    11    14     1
    25    11    99     1
    26    12    59     1
    27    13    15     1
    28    13   100     1
    29    14    17     1
    30    14    21     2
    31    15    53     1
    32    15    54     2
    33    16   101     1
    34    16   102     1
    35    16   103     1
    36    17    18     2
    37    17   104     1
    38    18    19     1
    39    18   105     1
    40    19    20     2
    41    19   106     1
    42    20    21     1
    43    20   107     1
    44    21   108     1
    45    22   109     1
    46    22   110     1
    47    22   111     1
    48    23   112     1
    49    23   113     1
    50    23   114     1
    51    24    25     1
    52    24    27     1
    53    24   115     1
    54    25    28     2
    55    25    29     1
    56    26    30     1
    57    26    40     1
    58    26   116     1
    59    27   117     1
    60    29    30     1
    61    29    32     1
    62    29    37     1
    63    30    34     1
    64    30   118     1
    65    31    32     1
    66    31    33     1
    67    31   119     1
    68    31   120     1
    69    32    38     1
    70    32   121     1
    71    33    34     1
    72    33    36     1
    73    33   122     1
    74    34    35     1
    75    34    39     1
    76    35    36     1
    77    35   123     1
    78    35   124     1
    79    37   125     1
    80    37   126     1
    81    37   127     1
    82    38   128     1
    83    39    50     1
    84    40    41     1
    85    41    42     2
    86    41    43     1
    87    43    44     1
    88    43    48     2
    89    44    45     2
    90    44   129     1
    91    45    46     1
    92    45   130     1
    93    46    47     2
    94    46   131     1
    95    47    48     1
    96    47   132     1
    97    48   133     1
    98    49   134     1
    99    50    51     2
   100    50    52     1
   101    52   135     1
   102    52   136     1
   103    52   137     1
   104    53    55     1
   105    55    56     1
   106    55    57     1
   107    55    58     1
   108    56   138     1
   109    56   139     1
   110    56   140     1
   111    57   141     1
   112    57   142     1
   113    57   143     1
   114    58   144     1
   115    58   145     1
   116    58   146     1
   117    59    60     2
   118    59    61     1
   119    61    62     1
   120    62    63     1
   121    62   147     1
   122    62   148     1
   123    63    64     1
   124    63    68     2
   125    64    65     2
   126    64   149     1
   127    65    66     1
   128    65   150     1
   129    66    67     2
   130    66    69     1
   131    67    68     1
   132    67   151     1
   133    68   152     1
   134    69    70     1
   135    70    71     1
   136    70    72     1
   137    70    73     1
   138    71    74     1
   139    72   153     1
   140    72   154     1
   141    72   155     1
   142    73   156     1
   143    73   157     1
   144    73   158     1
   145    74    75     1
   146    74   159     1
   147    74   160     1
   148    75    76     1
   149    75   161     1
   150    75   162     1
   151    76    94     1
   152    77    78     1
   153    77   163     1
   154    77   164     1
   155    77   165     1
   156    78    79     1
   157    78   166     1
   158    78   167     1
   159    79    80     1
   160    79   168     1
   161    79   169     1
   162    80    81     1
   163    80   170     1
   164    80   171     1
   165    81    82     1
   166    81   172     1
   167    81   173     1
   168    82    83     1
   169    82   174     1
   170    82   175     1
   171    83    84     1
   172    83   176     1
   173    83   177     1
   174    84    85     1
   175    84   178     1
   176    84   179     1
   177    85    86     1
   178    85   180     1
   179    85   181     1
   180    86    87     1
   181    86   182     1
   182    86   183     1
   183    87    88     1
   184    87   184     1
   185    87   185     1
   186    88    89     1
   187    88   186     1
   188    88   187     1
   189    89    90     1
   190    89   188     1
   191    89   189     1
   192    90    91     1
   193    90   190     1
   194    90   191     1
   195    91    92     1
   196    91   192     1
   197    91   193     1
   198    92    93     1
   199    92   194     1
   200    92   195     1
   201    93    94     1
   202    93   196     1
   203    93   197     1
   204    94   198     1
   205    94   199     1
