@<TRIPOS>MOLECULE
ECL
156 155 1 0 0
SMALL
USER_CHARGES


@<TRIPOS>ATOM
      1 C         -36.9947   -0.4193    0.0756 C.3       1     ECL    0.0000
      2 O         -35.8248    0.3650   -0.0186 O.3       1     ECL    0.0000
      3 C         -34.6555   -0.4119    0.0701 C.3       1     ECL    0.0000
      4 C         -33.4474    0.5060   -0.0404 C.3       1     ECL    0.0000
      5 O         -32.2798   -0.2731    0.0494 O.3       1     ECL    0.0000
      6 C         -31.1067    0.4976   -0.0444 C.3       1     ECL    0.0000
      7 C         -29.9058   -0.4295    0.0645 C.3       1     ECL    0.0000
      8 O         -28.7303    0.3375   -0.0297 O.3       1     ECL    0.0000
      9 C         -27.5670   -0.4476    0.0637 C.3       1     ECL    0.0000
     10 C         -26.3513    0.4599   -0.0488 C.3       1     ECL    0.0000
     11 O         -25.1921   -0.3307    0.0471 O.3       1     ECL    0.0000
     12 C         -24.0098    0.4254   -0.0476 C.3       1     ECL    0.0000
     13 C         -22.8224   -0.5180    0.0696 C.3       1     ECL    0.0000
     14 O         -21.6345    0.2297   -0.0236 O.3       1     ECL    0.0000
     15 C         -20.4854   -0.5752    0.0784 C.3       1     ECL    0.0000
     16 C         -19.2524    0.3089   -0.0315 C.3       1     ECL    0.0000
     17 O         -18.1099   -0.5043    0.0742 O.3       1     ECL    0.0000
     18 C         -16.9112    0.2262   -0.0154 C.3       1     ECL    0.0000
     19 C         -15.7446   -0.7424    0.1109 C.3       1     ECL    0.0000
     20 O         -14.5431   -0.0228    0.0232 O.3       1     ECL    0.0000
     21 C         -13.3820   -0.7329    0.1154 C.2       1     ECL    0.0000
     22 C         -12.1931    0.2096   -0.0011 C.3       1     ECL    0.0000
     23 O         -13.3088   -1.9317    0.2669 O.2       1     ECL    0.0000
     24 C         -10.8324   -0.5001    0.0849 C.3       1     ECL    0.0000
     25 C          -9.6590    0.4858   -0.0372 C.3       1     ECL    0.0000
     26 C          -8.3001   -0.2283    0.0475 C.3       1     ECL    0.0000
     27 C          -7.1336    0.7522   -0.0725 C.3       1     ECL    0.0000
     28 O          -5.9295    0.0363    0.0103 O.3       1     ECL    0.0000
     29 C          -4.7713    0.7513   -0.0737 C.2       1     ECL    0.0000
     30 C          -3.5803   -0.1894    0.0352 C.3       1     ECL    0.0000
     31 C          -2.2199    0.5215   -0.0428 C.3       1     ECL    0.0000
     32 C          -1.0477   -0.4673    0.0697 C.3       1     ECL    0.0000
     33 C           0.3129    0.2443   -0.0062 C.3       1     ECL    0.0000
     34 O          -4.7028    1.9517   -0.2136 O.2       1     ECL    0.0000
     35 C           1.4767   -0.7409    0.1023 C.3       1     ECL    0.0000
     36 O           2.6828   -0.0274    0.0295 O.3       1     ECL    0.0000
     37 C           3.8391   -0.7468    0.1025 C.2       1     ECL    0.0000
     38 C           5.0326    0.1923    0.0078 C.3       1     ECL    0.0000
     39 O           3.9046   -1.9493    0.2242 O.2       1     ECL    0.0000
     40 C           6.3912   -0.5240    0.0648 C.3       1     ECL    0.0000
     41 C           7.5653    0.4642   -0.0303 C.3       1     ECL    0.0000
     42 C           8.9249   -0.2514    0.0210 C.3       1     ECL    0.0000
     43 C          10.0891    0.7355   -0.0653 C.3       1     ECL    0.0000
     44 O          11.2954    0.0199   -0.0212 O.3       1     ECL    0.0000
     45 C          12.4512    0.7421   -0.0732 C.2       1     ECL    0.0000
     46 C          13.6457   -0.1989   -0.0186 C.3       1     ECL    0.0000
     47 O          12.5157    1.9483   -0.1516 O.2       1     ECL    0.0000
     48 C          15.0034    0.5215   -0.0323 C.3       1     ECL    0.0000
     49 C          16.1790   -0.4683    0.0158 C.3       1     ECL    0.0000
     50 C          17.5374    0.2516    0.0130 C.3       1     ECL    0.0000
     51 C          18.7034   -0.7364    0.0448 C.3       1     ECL    0.0000
     52 O          19.9085   -0.0173    0.0536 O.3       1     ECL    0.0000
     53 C          21.0653   -0.7396    0.0609 C.2       1     ECL    0.0000
     54 C          22.2589    0.2042    0.0787 C.3       1     ECL    0.0000
     55 O          21.1316   -1.9483    0.0555 O.2       1     ECL    0.0000
     56 C          23.6164   -0.5142    0.0202 C.3       1     ECL    0.0000
     57 C          24.7929    0.4752    0.0506 C.3       1     ECL    0.0000
     58 C          26.1497   -0.2443   -0.0213 C.3       1     ECL    0.0000
     59 C          27.3186    0.7394    0.0297 C.3       1     ECL    0.0000
     60 O          28.5207    0.0198   -0.0510 O.3       1     ECL    0.0000
     61 C          29.6811    0.7342    0.0046 C.2       1     ECL    0.0000
     62 C          30.8688   -0.2111   -0.1012 C.3       1     ECL    0.0000
     63 O          29.7526    1.9371    0.1201 O.2       1     ECL    0.0000
     64 C          32.2319    0.4858    0.0348 C.3       1     ECL    0.0000
     65 C          33.3988   -0.5093   -0.0778 C.3       1     ECL    0.0000
     66 C          34.7626    0.1843    0.0690 C.3       1     ECL    0.0000
     67 C          35.9166   -0.8069   -0.0493 C.3       1     ECL    0.0000
     68 O          37.1451   -0.1230    0.0976 O.3       1     ECL    0.0000
     69 H         -37.8721    0.2609   -0.0023 H         1     ECL    0.0000
     70 H         -37.0356   -1.1533   -0.7596 H         1     ECL    0.0000
     71 H         -37.0320   -0.9405    1.0580 H         1     ECL    0.0000
     72 H         -34.6390   -0.9455    1.0488 H         1     ECL    0.0000
     73 H         -34.6429   -1.1578   -0.7584 H         1     ECL    0.0000
     74 H         -33.4633    1.0386   -1.0196 H         1     ECL    0.0000
     75 H         -33.4600    1.2519    0.7880 H         1     ECL    0.0000
     76 H         -31.0862    1.2444    0.7830 H         1     ECL    0.0000
     77 H         -31.0891    1.0286   -1.0244 H         1     ECL    0.0000
     78 H         -29.9246   -0.9604    1.0446 H         1     ECL    0.0000
     79 H         -29.9279   -1.1770   -0.7623 H         1     ECL    0.0000
     80 H         -27.5550   -0.9770    1.0448 H         1     ECL    0.0000
     81 H         -27.5581   -1.1969   -0.7617 H         1     ECL    0.0000
     82 H         -26.3585    1.2095    0.7762 H         1     ECL    0.0000
     83 H         -26.3602    0.9879   -1.0306 H         1     ECL    0.0000
     84 H         -23.9821    1.1760    0.7761 H         1     ECL    0.0000
     85 H         -23.9829    0.9510   -1.0303 H         1     ECL    0.0000
     86 H         -22.8530   -1.0441    1.0520 H         1     ECL    0.0000
     87 H         -22.8530   -1.2690   -0.7538 H         1     ECL    0.0000
     88 H         -20.4873   -1.1008    1.0615 H         1     ECL    0.0000
     89 H         -20.4858   -1.3278   -0.7440 H         1     ECL    0.0000
     90 H         -19.2493    1.0620    0.7903 H         1     ECL    0.0000
     91 H         -19.2456    0.8326   -1.0155 H         1     ECL    0.0000
     92 H         -16.8674    0.7488   -0.9991 H         1     ECL    0.0000
     93 H         -16.8722    0.9782    0.8065 H         1     ECL    0.0000
     94 H         -15.7839   -1.4923   -0.7137 H         1     ECL    0.0000
     95 H         -15.7891   -1.2628    1.0963 H         1     ECL    0.0000
     96 H         -12.2677    0.7452   -0.9771 H         1     ECL    0.0000
     97 H         -12.2667    0.9652    0.8166 H         1     ECL    0.0000
     98 H         -10.7587   -1.2598   -0.7297 H         1     ECL    0.0000
     99 H         -10.7568   -1.0401    1.0590 H         1     ECL    0.0000
    100 H          -9.7313    1.0289   -1.0095 H         1     ECL    0.0000
    101 H          -9.7285    1.2466    0.7762 H         1     ECL    0.0000
    102 H          -8.2287   -0.9886   -0.7667 H         1     ECL    0.0000
    103 H          -8.2265   -0.7726    1.0193 H         1     ECL    0.0000
    104 H          -7.1796    1.2790   -1.0540 H         1     ECL    0.0000
    105 H          -7.1759    1.4955    0.7575 H         1     ECL    0.0000
    106 H          -3.6522   -0.9376   -0.7894 H         1     ECL    0.0000
    107 H          -3.6552   -0.7343    1.0060 H         1     ECL    0.0000
    108 H          -2.1436    1.0715   -1.0112 H         1     ECL    0.0000
    109 H          -2.1463    1.2726    0.7797 H         1     ECL    0.0000
    110 H          -1.1179   -1.2192   -0.7519 H         1     ECL    0.0000
    111 H          -1.1217   -1.0208    1.0359 H         1     ECL    0.0000
    112 H           0.3882    0.8000   -0.9714 H         1     ECL    0.0000
    113 H           0.3859    0.9947    0.8171 H         1     ECL    0.0000
    114 H           1.4329   -1.4735   -0.7371 H         1     ECL    0.0000
    115 H           1.4287   -1.2800    1.0770 H         1     ECL    0.0000
    116 H           4.9554    0.7578   -0.9510 H         1     ECL    0.0000
    117 H           4.9664    0.9232    0.8483 H         1     ECL    0.0000
    118 H           6.4594   -1.2570   -0.7744 H         1     ECL    0.0000
    119 H           6.4700   -1.0955    1.0205 H         1     ECL    0.0000
    120 H           7.4874    1.0410   -0.9824 H         1     ECL    0.0000
    121 H           7.5011    1.1963    0.8095 H         1     ECL    0.0000
    122 H           8.9936   -0.9793   -0.8226 H         1     ECL    0.0000
    123 H           9.0034   -0.8331    0.9706 H         1     ECL    0.0000
    124 H          10.0359    1.3034   -1.0233 H         1     ECL    0.0000
    125 H          10.0504    1.4429    0.7956 H         1     ECL    0.0000
    126 H          13.5846   -0.8868   -0.8950 H         1     ECL    0.0000
    127 H          13.5650   -0.8119    0.9103 H         1     ECL    0.0000
    128 H          15.0855    1.1420   -0.9566 H         1     ECL    0.0000
    129 H          15.0663    1.2099    0.8442 H         1     ECL    0.0000
    130 H          16.1215   -1.1530   -0.8635 H         1     ECL    0.0000
    131 H          16.0966   -1.0970    0.9341 H         1     ECL    0.0000
    132 H          17.6187    0.8890   -0.8999 H         1     ECL    0.0000
    133 H          17.6009    0.9280    0.8988 H         1     ECL    0.0000
    134 H          18.6712   -1.3886   -0.8589 H         1     ECL    0.0000
    135 H          18.6459   -1.3634    0.9650 H         1     ECL    0.0000
    136 H          22.1720    0.8955   -0.7929 H         1     ECL    0.0000
    137 H          22.2034    0.8133    1.0119 H         1     ECL    0.0000
    138 H          23.6724   -1.1236   -0.9135 H         1     ECL    0.0000
    139 H          23.7048   -1.2130    0.8862 H         1     ECL    0.0000
    140 H          24.7047    1.1832   -0.8075 H         1     ECL    0.0000
    141 H          24.7435    1.0789    0.9878 H         1     ECL    0.0000
    142 H          26.2057   -0.8372   -0.9655 H         1     ECL    0.0000
    143 H          26.2351   -0.9627    0.8289 H         1     ECL    0.0000
    144 H          27.2585    1.4474   -0.8295 H         1     ECL    0.0000
    145 H          27.2937    1.3069    0.9891 H         1     ECL    0.0000
    146 H          30.8137   -0.7243   -1.0904 H         1     ECL    0.0000
    147 H          30.7724   -0.9849    0.6970 H         1     ECL    0.0000
    148 H          32.3344    1.2616   -0.7612 H         1     ECL    0.0000
    149 H          32.2851    1.0046    1.0218 H         1     ECL    0.0000
    150 H          33.2966   -1.2915    0.7117 H         1     ECL    0.0000
    151 H          33.3512   -1.0249   -1.0664 H         1     ECL    0.0000
    152 H          34.8155    0.6952    1.0600 H         1     ECL    0.0000
    153 H          34.8684    0.9688   -0.7180 H         1     ECL    0.0000
    154 H          35.8708   -1.5844    0.7456 H         1     ECL    0.0000
    155 H          35.9283   -1.3035   -1.0451 H         1     ECL    0.0000
    156 H          37.8688   -0.7497    0.0203 H         1     ECL    0.0000
@<TRIPOS>BOND
     1     1     2     1
     2     1    69     1
     3     1    70     1
     4     1    71     1
     5     2     3     1
     6     3     4     1
     7     3    72     1
     8     3    73     1
     9     4     5     1
    10     4    74     1
    11     4    75     1
    12     5     6     1
    13     6     7     1
    14     6    76     1
    15     6    77     1
    16     7     8     1
    17     7    78     1
    18     7    79     1
    19     8     9     1
    20     9    10     1
    21     9    80     1
    22     9    81     1
    23    10    11     1
    24    10    82     1
    25    10    83     1
    26    11    12     1
    27    12    13     1
    28    12    84     1
    29    12    85     1
    30    13    14     1
    31    13    86     1
    32    13    87     1
    33    14    15     1
    34    15    16     1
    35    15    88     1
    36    15    89     1
    37    16    17     1
    38    16    90     1
    39    16    91     1
    40    17    18     1
    41    18    19     1
    42    18    92     1
    43    18    93     1
    44    19    20     1
    45    19    94     1
    46    19    95     1
    47    20    21     1
    48    21    22     1
    49    21    23     2
    50    22    24     1
    51    22    96     1
    52    22    97     1
    53    24    25     1
    54    24    98     1
    55    24    99     1
    56    25    26     1
    57    25   100     1
    58    25   101     1
    59    26    27     1
    60    26   102     1
    61    26   103     1
    62    27    28     1
    63    27   104     1
    64    27   105     1
    65    28    29     1
    66    29    30     1
    67    29    34     2
    68    30    31     1
    69    30   106     1
    70    30   107     1
    71    31    32     1
    72    31   108     1
    73    31   109     1
    74    32    33     1
    75    32   110     1
    76    32   111     1
    77    33    35     1
    78    33   112     1
    79    33   113     1
    80    35    36     1
    81    35   114     1
    82    35   115     1
    83    36    37     1
    84    37    38     1
    85    37    39     2
    86    38    40     1
    87    38   116     1
    88    38   117     1
    89    40    41     1
    90    40   118     1
    91    40   119     1
    92    41    42     1
    93    41   120     1
    94    41   121     1
    95    42    43     1
    96    42   122     1
    97    42   123     1
    98    43    44     1
    99    43   124     1
   100    43   125     1
   101    44    45     1
   102    45    46     1
   103    45    47     2
   104    46    48     1
   105    46   126     1
   106    46   127     1
   107    48    49     1
   108    48   128     1
   109    48   129     1
   110    49    50     1
   111    49   130     1
   112    49   131     1
   113    50    51     1
   114    50   132     1
   115    50   133     1
   116    51    52     1
   117    51   134     1
   118    51   135     1
   119    52    53     1
   120    53    54     1
   121    53    55     2
   122    54    56     1
   123    54   136     1
   124    54   137     1
   125    56    57     1
   126    56   138     1
   127    56   139     1
   128    57    58     1
   129    57   140     1
   130    57   141     1
   131    58    59     1
   132    58   142     1
   133    58   143     1
   134    59    60     1
   135    59   144     1
   136    59   145     1
   137    60    61     1
   138    61    62     1
   139    61    63     2
   140    62    64     1
   141    62   146     1
   142    62   147     1
   143    64    65     1
   144    64   148     1
   145    64   149     1
   146    65    66     1
   147    65   150     1
   148    65   151     1
   149    66    67     1
   150    66   152     1
   151    66   153     1
   152    67    68     1
   153    67   154     1
   154    67   155     1
   155    68   156     1
