@<TRIPOS>MOLECULE
FUL
176 180 1 0 0
SMALL
USER_CHARGES


@<TRIPOS>ATOM
      1 C           6.5095   -0.9263   -3.5331 C.3       1     FUL    0.0000
      2 C           6.8752   -1.5928   -2.1861 C.3       1     FUL    0.0000
      3 C           5.7863   -2.6167   -1.8146 C.3       1     FUL    0.0000
      4 C           4.4585   -1.9448   -1.4077 C.3       1     FUL    0.0000
      5 C           4.6161   -0.9007   -0.2808 C.3       1     FUL    0.0000
      6 C           3.3207   -0.2233    0.1482 C.ar      1     FUL    0.0000
      7 C           3.2646    1.0957    0.4323 C.ar      1     FUL    0.0000
      8 C           4.4756    2.0003    0.3414 C.3       1     FUL    0.0000
      9 C           5.8136    1.2430    0.3706 C.3       1     FUL    0.0000
     10 C           6.1922    0.7610    1.7861 C.3       1     FUL    0.0000
     11 C           6.6713    1.8905    2.7155 C.3       1     FUL    0.0000
     12 C           7.1728    1.3515    4.0662 C.3       1     FUL    0.0000
     13 C           7.6745    2.4795    4.9827 C.3       1     FUL    0.0000
     14 C           8.2216    1.9414    6.3149 C.3       1     FUL    0.0000
     15 C           8.7389    3.0714    7.2200 C.3       1     FUL    0.0000
     16 C           9.3175    2.5353    8.5398 C.3       1     FUL    0.0000
     17 C           9.8400    3.6679    9.4399 C.3       1     FUL    0.0000
     18 C          10.4469    3.1253   10.7426 C.3       1     FUL    0.0000
     19 S          10.9578    4.3865   11.8875 S.o       1     FUL    0.0000
     20 O          11.1867    3.9745   13.2647 O.2       1     FUL    0.0000
     21 C          12.2225    5.3696   11.1142 C.3       1     FUL    0.0000
     22 C          12.7269    6.5149   12.0085 C.3       1     FUL    0.0000
     23 C          13.8063    7.3580   11.3031 C.3       1     FUL    0.0000
     24 C          14.3168    8.4990   12.1317 C.3       1     FUL    0.0000
     25 C          15.3632    9.3065   11.4322 C.3       1     FUL    0.0000
     26 F          14.9038    9.8076   10.3176 F         1     FUL    0.0000
     27 F          16.3910    8.5694   11.1090 F         1     FUL    0.0000
     28 F          15.8043   10.3000   12.1561 F         1     FUL    0.0000
     29 F          13.3145    9.2952   12.4610 F         1     FUL    0.0000
     30 F          14.8185    8.0426   13.2659 F         1     FUL    0.0000
     31 C           5.6971    0.1246   -0.6806 C.3       1     FUL    0.0000
     32 C           7.0005   -0.6203   -0.9915 C.3       1     FUL    0.0000
     33 C           8.2653    0.1859   -1.3003 C.3       1     FUL    0.0000
     34 C           9.1846   -0.8452   -1.9865 C.3       1     FUL    0.0000
     35 C           8.3325   -2.1063   -2.2256 C.3       1     FUL    0.0000
     36 O           8.6928   -2.6957   -3.4384 O.3       1     FUL    0.0000
     37 C           8.3202   -3.9854   -3.6976 C.2       1     FUL    0.0000
     38 O           7.7718   -4.6729   -2.8608 O.2       1     FUL    0.0000
     39 O           8.5716   -4.4624   -4.9571 O.3       1     FUL    0.0000
     40 C           8.0112   -5.7137   -5.3063 C.3       1     FUL    0.0000
     41 C           6.4980   -5.6537   -5.2468 C.ar      1     FUL    0.0000
     42 C           5.7848   -6.5018   -4.4877 C.ar      1     FUL    0.0000
     43 C           4.4495   -6.3962   -4.4109 C.ar      1     FUL    0.0000
     44 C           3.7717   -5.4155   -5.0379 C.ar      1     FUL    0.0000
     45 O           2.4035   -5.3405   -4.9892 O.3       1     FUL    0.0000
     46 C           1.8449   -4.4993   -3.9966 C.3       1     FUL    0.0000
     47 O           0.4682   -4.7541   -4.2052 O.3       1     FUL    0.0000
     48 C          -0.4302   -3.7789   -3.7391 C.3       1     FUL    0.0000
     49 C          -1.8410   -4.3319   -3.8853 C.3       1     FUL    0.0000
     50 O          -2.7669   -3.3419   -3.5077 O.3       1     FUL    0.0000
     51 C          -4.0977   -3.7782   -3.6450 C.3       1     FUL    0.0000
     52 C          -5.0443   -2.6325   -3.2851 C.3       1     FUL    0.0000
     53 C          -6.5156   -3.0449   -3.4568 C.3       1     FUL    0.0000
     54 C          -7.4871   -1.8934   -3.1505 C.3       1     FUL    0.0000
     55 C          -8.9505   -2.3167   -3.3596 C.3       1     FUL    0.0000
     56 C          -9.9352   -1.1648   -3.1003 C.3       1     FUL    0.0000
     57 C         -11.3910   -1.5972   -3.3408 C.3       1     FUL    0.0000
     58 C         -12.3849   -0.4452   -3.1202 C.3       1     FUL    0.0000
     59 C         -13.8342   -0.8843   -3.3864 C.3       1     FUL    0.0000
     60 C         -14.8341    0.2680   -3.1967 C.3       1     FUL    0.0000
     61 C         -16.2782   -0.1756   -3.4827 C.3       1     FUL    0.0000
     62 C         -17.2816    0.9772   -3.3163 C.3       1     FUL    0.0000
     63 C         -18.7221    0.5306   -3.6159 C.3       1     FUL    0.0000
     64 C         -19.7273    1.6840   -3.4653 C.3       1     FUL    0.0000
     65 C         -21.1656    1.2358   -3.7728 C.3       1     FUL    0.0000
     66 C         -22.1714    2.3897   -3.6310 C.3       1     FUL    0.0000
     67 C         -23.6086    1.9413   -3.9410 C.3       1     FUL    0.0000
     68 C         -24.6096    3.0959   -3.8017 C.3       1     FUL    0.0000
     69 C           2.2431   -4.9563   -2.5977 C.3       1     FUL    0.0000
     70 C           2.2375   -3.0481   -4.2515 C.3       1     FUL    0.0000
     71 C           4.4894   -4.6441   -5.8766 C.ar      1     FUL    0.0000
     72 C           5.8244   -4.7370   -5.9613 C.ar      1     FUL    0.0000
     73 C           2.0950    1.6430    0.8121 C.ar      1     FUL    0.0000
     74 C           0.9635    0.9317    0.9359 C.ar      1     FUL    0.0000
     75 O          -0.2065    1.5067    1.3236 O.3       1     FUL    0.0000
     76 C           1.0358   -0.3812    0.6727 C.ar      1     FUL    0.0000
     77 C           2.1919   -0.9429    0.2924 C.ar      1     FUL    0.0000
     78 H           5.5375   -0.3918   -3.5167 H         1     FUL    0.0000
     79 H           7.2705   -0.1898   -3.8697 H         1     FUL    0.0000
     80 H           6.4164   -1.6876   -4.3403 H         1     FUL    0.0000
     81 H           6.1376   -3.2426   -0.9605 H         1     FUL    0.0000
     82 H           5.5999   -3.3086   -2.6690 H         1     FUL    0.0000
     83 H           3.7683   -2.7640   -1.1012 H         1     FUL    0.0000
     84 H           3.9863   -1.4507   -2.2868 H         1     FUL    0.0000
     85 H           4.9714   -1.4570    0.6221 H         1     FUL    0.0000
     86 H           4.3854    2.5665   -0.6170 H         1     FUL    0.0000
     87 H           4.4569    2.7630    1.1520 H         1     FUL    0.0000
     88 H           6.6142    1.9491    0.0355 H         1     FUL    0.0000
     89 H           5.3316    0.2359    2.2607 H         1     FUL    0.0000
     90 H           7.0247    0.0240    1.7119 H         1     FUL    0.0000
     91 H           7.5001    2.4500    2.2198 H         1     FUL    0.0000
     92 H           5.8445    2.6143    2.9014 H         1     FUL    0.0000
     93 H           6.3484    0.7972    4.5746 H         1     FUL    0.0000
     94 H           8.0033    0.6272    3.8895 H         1     FUL    0.0000
     95 H           8.4795    3.0481    4.4591 H         1     FUL    0.0000
     96 H           6.8397    3.1921    5.1844 H         1     FUL    0.0000
     97 H           7.4180    1.3781    6.8460 H         1     FUL    0.0000
     98 H           9.0522    1.2249    6.1096 H         1     FUL    0.0000
     99 H           9.5288    3.6446    6.6786 H         1     FUL    0.0000
    100 H           7.9051    3.7794    7.4409 H         1     FUL    0.0000
    101 H           8.5292    1.9621    9.0832 H         1     FUL    0.0000
    102 H          10.1513    1.8277    8.3169 H         1     FUL    0.0000
    103 H          10.6090    4.2458    8.8748 H         1     FUL    0.0000
    104 H           9.0000    4.3643    9.6755 H         1     FUL    0.0000
    105 H           9.6902    2.4922   11.2625 H         1     FUL    0.0000
    106 H          11.3260    2.4787   10.5156 H         1     FUL    0.0000
    107 H          11.8113    5.7971   10.1712 H         1     FUL    0.0000
    108 H          13.0705    4.6978   10.8454 H         1     FUL    0.0000
    109 H          13.1490    6.0939   12.9521 H         1     FUL    0.0000
    110 H          11.8678    7.1703   12.2884 H         1     FUL    0.0000
    111 H          13.3801    7.7530   10.3502 H         1     FUL    0.0000
    112 H          14.6549    6.6875   11.0277 H         1     FUL    0.0000
    113 H           5.3737    0.6266   -1.6240 H         1     FUL    0.0000
    114 H           7.2450   -1.2332   -0.0872 H         1     FUL    0.0000
    115 H           8.0217    1.0275   -1.9890 H         1     FUL    0.0000
    116 H           8.7266    0.6172   -0.3824 H         1     FUL    0.0000
    117 H          10.0701   -1.0855   -1.3526 H         1     FUL    0.0000
    118 H           9.5713   -0.4269   -2.9453 H         1     FUL    0.0000
    119 H           8.5306   -2.8119   -1.3844 H         1     FUL    0.0000
    120 H           8.3229   -5.9358   -6.3528 H         1     FUL    0.0000
    121 H           8.4481   -6.5066   -4.6593 H         1     FUL    0.0000
    122 H           6.2970   -7.2926   -3.9154 H         1     FUL    0.0000
    123 H           3.8949   -7.1239   -3.7946 H         1     FUL    0.0000
    124 H          -0.2258   -3.5439   -2.6705 H         1     FUL    0.0000
    125 H          -0.3410   -2.8585   -4.3602 H         1     FUL    0.0000
    126 H          -2.0209   -4.6190   -4.9477 H         1     FUL    0.0000
    127 H          -1.9688   -5.2277   -3.2342 H         1     FUL    0.0000
    128 H          -4.2764   -4.0912   -4.6998 H         1     FUL    0.0000
    129 H          -4.2730   -4.6456   -2.9674 H         1     FUL    0.0000
    130 H          -4.8643   -2.3150   -2.2304 H         1     FUL    0.0000
    131 H          -4.8264   -1.7555   -3.9406 H         1     FUL    0.0000
    132 H          -6.6786   -3.3899   -4.5057 H         1     FUL    0.0000
    133 H          -6.7387   -3.9072   -2.7845 H         1     FUL    0.0000
    134 H          -7.3434   -1.5538   -2.0974 H         1     FUL    0.0000
    135 H          -7.2547   -1.0282   -3.8160 H         1     FUL    0.0000
    136 H          -9.0807   -2.6795   -4.4071 H         1     FUL    0.0000
    137 H          -9.1898   -3.1689   -2.6800 H         1     FUL    0.0000
    138 H          -9.8213   -0.8066   -2.0497 H         1     FUL    0.0000
    139 H          -9.6882   -0.3101   -3.7740 H         1     FUL    0.0000
    140 H         -11.4940   -1.9741   -4.3863 H         1     FUL    0.0000
    141 H         -11.6442   -2.4411   -2.6560 H         1     FUL    0.0000
    142 H         -12.2954   -0.0723   -2.0723 H         1     FUL    0.0000
    143 H         -12.1252    0.4012   -3.7996 H         1     FUL    0.0000
    144 H         -13.9152   -1.2719   -4.4298 H         1     FUL    0.0000
    145 H         -14.0994   -1.7217   -2.6981 H         1     FUL    0.0000
    146 H         -14.7636    0.6525   -2.1516 H         1     FUL    0.0000
    147 H         -14.5638    1.1073   -3.8807 H         1     FUL    0.0000
    148 H         -16.3426   -0.5712   -4.5243 H         1     FUL    0.0000
    149 H         -16.5530   -1.0081   -2.7922 H         1     FUL    0.0000
    150 H         -17.2245    1.3706   -2.2736 H         1     FUL    0.0000
    151 H         -17.0033    1.8110   -4.0038 H         1     FUL    0.0000
    152 H         -18.7751    0.1297   -4.6561 H         1     FUL    0.0000
    153 H         -19.0036   -0.2984   -2.9239 H         1     FUL    0.0000
    154 H         -19.6785    2.0840   -2.4247 H         1     FUL    0.0000
    155 H         -19.4437    2.5137   -4.1557 H         1     FUL    0.0000
    156 H         -21.2122    0.8315   -4.8120 H         1     FUL    0.0000
    157 H         -21.4511    0.4089   -3.0798 H         1     FUL    0.0000
    158 H         -22.1270    2.7940   -2.5918 H         1     FUL    0.0000
    159 H         -21.8858    3.2167   -4.3236 H         1     FUL    0.0000
    160 H         -23.6580    1.5364   -4.9802 H         1     FUL    0.0000
    161 H         -23.9007    1.1164   -3.2480 H         1     FUL    0.0000
    162 H         -25.6462    2.7558   -4.0292 H         1     FUL    0.0000
    163 H         -24.6075    3.5068   -2.7663 H         1     FUL    0.0000
    164 H         -24.3646    3.9269   -4.5020 H         1     FUL    0.0000
    165 H           1.7384   -4.3536   -1.8104 H         1     FUL    0.0000
    166 H           3.3358   -4.8436   -2.4211 H         1     FUL    0.0000
    167 H           1.9744   -6.0229   -2.4235 H         1     FUL    0.0000
    168 H           1.9272   -2.7081   -5.2656 H         1     FUL    0.0000
    169 H           1.8027   -2.3550   -3.4975 H         1     FUL    0.0000
    170 H           3.3375   -2.9041   -4.1720 H         1     FUL    0.0000
    171 H           3.9702   -3.8944   -6.4976 H         1     FUL    0.0000
    172 H           6.3725   -4.0488   -6.6260 H         1     FUL    0.0000
    173 H           2.0503    2.7223    1.0352 H         1     FUL    0.0000
    174 H          -0.8960    0.8243    1.3639 H         1     FUL    0.0000
    175 H           0.1319   -1.0048    0.7766 H         1     FUL    0.0000
    176 H           2.1870   -2.0282    0.1088 H         1     FUL    0.0000
@<TRIPOS>BOND
     1     1     2     1
     2     1    78     1
     3     1    79     1
     4     1    80     1
     5     2     3     1
     6     2    32     1
     7     2    35     1
     8     3     4     1
     9     3    81     1
    10     3    82     1
    11     4     5     1
    12     4    83     1
    13     4    84     1
    14     5     6     1
    15     5    31     1
    16     5    85     1
    17     6     7     2
    18     6    77     1
    19     7     8     1
    20     7    73     1
    21     8     9     1
    22     8    86     1
    23     8    87     1
    24     9    10     1
    25     9    31     1
    26     9    88     1
    27    10    11     1
    28    10    89     1
    29    10    90     1
    30    11    12     1
    31    11    91     1
    32    11    92     1
    33    12    13     1
    34    12    93     1
    35    12    94     1
    36    13    14     1
    37    13    95     1
    38    13    96     1
    39    14    15     1
    40    14    97     1
    41    14    98     1
    42    15    16     1
    43    15    99     1
    44    15   100     1
    45    16    17     1
    46    16   101     1
    47    16   102     1
    48    17    18     1
    49    17   103     1
    50    17   104     1
    51    18    19     1
    52    18   105     1
    53    18   106     1
    54    19    20     2
    55    19    21     1
    56    21    22     1
    57    21   107     1
    58    21   108     1
    59    22    23     1
    60    22   109     1
    61    22   110     1
    62    23    24     1
    63    23   111     1
    64    23   112     1
    65    24    25     1
    66    24    29     1
    67    24    30     1
    68    25    26     1
    69    25    27     1
    70    25    28     1
    71    31    32     1
    72    31   113     1
    73    32    33     1
    74    32   114     1
    75    33    34     1
    76    33   115     1
    77    33   116     1
    78    34    35     1
    79    34   117     1
    80    34   118     1
    81    35    36     1
    82    35   119     1
    83    36    37     1
    84    37    38     2
    85    37    39     1
    86    39    40     1
    87    40    41     1
    88    40   120     1
    89    40   121     1
    90    41    42     1
    91    41    72     2
    92    42    43     2
    93    42   122     1
    94    43    44     1
    95    43   123     1
    96    44    45     1
    97    44    71     2
    98    45    46     1
    99    46    47     1
   100    46    69     1
   101    46    70     1
   102    47    48     1
   103    48    49     1
   104    48   124     1
   105    48   125     1
   106    49    50     1
   107    49   126     1
   108    49   127     1
   109    50    51     1
   110    51    52     1
   111    51   128     1
   112    51   129     1
   113    52    53     1
   114    52   130     1
   115    52   131     1
   116    53    54     1
   117    53   132     1
   118    53   133     1
   119    54    55     1
   120    54   134     1
   121    54   135     1
   122    55    56     1
   123    55   136     1
   124    55   137     1
   125    56    57     1
   126    56   138     1
   127    56   139     1
   128    57    58     1
   129    57   140     1
   130    57   141     1
   131    58    59     1
   132    58   142     1
   133    58   143     1
   134    59    60     1
   135    59   144     1
   136    59   145     1
   137    60    61     1
   138    60   146     1
   139    60   147     1
   140    61    62     1
   141    61   148     1
   142    61   149     1
   143    62    63     1
   144    62   150     1
   145    62   151     1
   146    63    64     1
   147    63   152     1
   148    63   153     1
   149    64    65     1
   150    64   154     1
   151    64   155     1
   152    65    66     1
   153    65   156     1
   154    65   157     1
   155    66    67     1
   156    66   158     1
   157    66   159     1
   158    67    68     1
   159    67   160     1
   160    67   161     1
   161    68   162     1
   162    68   163     1
   163    68   164     1
   164    69   165     1
   165    69   166     1
   166    69   167     1
   167    70   168     1
   168    70   169     1
   169    70   170     1
   170    71    72     1
   171    71   171     1
   172    72   172     1
   173    73    74     2
   174    73   173     1
   175    74    75     1
   176    74    76     1
   177    75   174     1
   178    76    77     2
   179    76   175     1
   180    77   176     1
