@<TRIPOS>MOLECULE
PTX
118 118 1 0 0
SMALL
USER_CHARGES


@<TRIPOS>ATOM
      1 C          35.7758   -0.4720    1.8533 C.3       1     PTX    0.0000
      2 C          34.4955   -0.3817    1.0122 C.3       1     PTX    0.0000
      3 C          33.3039    0.1286    1.8382 C.3       1     PTX    0.0000
      4 C          32.0196    0.2238    0.9985 C.3       1     PTX    0.0000
      5 C          30.8276    0.7303    1.8269 C.3       1     PTX    0.0000
      6 C          29.5439    0.8320    0.9869 C.3       1     PTX    0.0000
      7 C          28.3515    1.3318    1.8187 C.3       1     PTX    0.0000
      8 C          27.0683    1.4427    0.9790 C.3       1     PTX    0.0000
      9 C          25.8757    1.9327    1.8165 C.3       1     PTX    0.0000
     10 C          24.5928    2.0557    0.9781 C.3       1     PTX    0.0000
     11 C          23.4003    2.5331    1.8229 C.3       1     PTX    0.0000
     12 C          22.1173    2.6706    0.9870 C.3       1     PTX    0.0000
     13 C          20.9252    3.1326    1.8409 C.3       1     PTX    0.0000
     14 C          19.6418    3.2870    1.0085 C.3       1     PTX    0.0000
     15 C          18.4505    3.7311    1.8729 C.3       1     PTX    0.0000
     16 C          17.1666    3.9048    1.0452 C.3       1     PTX    0.0000
     17 C          15.9765    4.3295    1.9207 C.3       1     PTX    0.0000
     18 C          14.6988    4.5212    1.1013 C.3       1     PTX    0.0000
     19 O          13.6635    4.8980    1.9766 O.3       1     PTX    0.0000
     20 C          12.3699    4.9730    1.4089 C.3       1     PTX    0.0000
     21 C          11.4783    5.5169    2.5251 C.3       1     PTX    0.0000
     22 C          12.3272    5.9006    0.1988 C.3       1     PTX    0.0000
     23 O          12.0464    3.6470    1.0510 O.3       1     PTX    0.0000
     24 C          10.6787    3.3631    0.8987 C.3       1     PTX    0.0000
     25 C          10.5365    1.9865    0.2467 C.3       1     PTX    0.0000
     26 C           9.0627    1.5772    0.0910 C.3       1     PTX    0.0000
     27 C           8.9129    0.2208   -0.6169 C.3       1     PTX    0.0000
     28 C           7.4407   -0.2070   -0.7330 C.3       1     PTX    0.0000
     29 C           7.2851   -1.5353   -1.4913 C.3       1     PTX    0.0000
     30 C           5.8165   -1.9831   -1.5712 C.3       1     PTX    0.0000
     31 C           5.6545   -3.2821   -2.3773 C.3       1     PTX    0.0000
     32 C           4.1914   -3.7514   -2.4234 C.3       1     PTX    0.0000
     33 C           4.0209   -5.0217   -3.2717 C.3       1     PTX    0.0000
     34 C           2.5651   -5.4761   -3.2999 C.2       1     PTX    0.0000
     35 C           1.7226   -5.0760   -4.2712 C.2       1     PTX    0.0000
     36 C           2.1301   -4.1177   -5.3798 C.3       1     PTX    0.0000
     37 C           0.4367   -5.5195   -4.2898 C.2       1     PTX    0.0000
     38 O          -0.3120   -5.1636   -5.1824 O.2       1     PTX    0.0000
     39 C           0.0028   -6.3542   -3.2981 C.2       1     PTX    0.0000
     40 O          -1.3137   -6.7460   -3.4654 O.3       1     PTX    0.0000
     41 C          -1.8256   -7.9088   -2.8592 C.3       1     PTX    0.0000
     42 C           0.8398   -6.7519   -2.3092 C.2       1     PTX    0.0000
     43 O           0.3254   -7.5415   -1.3018 O.3       1     PTX    0.0000
     44 C           0.8250   -7.5262    0.0143 C.3       1     PTX    0.0000
     45 C           2.1322   -6.3034   -2.3067 C.2       1     PTX    0.0000
     46 O           2.9156   -6.6344   -1.4395 O.2       1     PTX    0.0000
     47 H          36.6303   -0.8439    1.2422 H         1     PTX    0.0000
     48 H          36.0599    0.5250    2.2611 H         1     PTX    0.0000
     49 H          35.6443   -1.1697    2.7117 H         1     PTX    0.0000
     50 H          34.2577   -1.3899    0.5962 H         1     PTX    0.0000
     51 H          34.6718    0.3023    0.1478 H         1     PTX    0.0000
     52 H          33.5484    1.1343    2.2556 H         1     PTX    0.0000
     53 H          33.1323   -0.5582    2.7008 H         1     PTX    0.0000
     54 H          31.7771   -0.7813    0.5785 H         1     PTX    0.0000
     55 H          32.1912    0.9130    0.1377 H         1     PTX    0.0000
     56 H          31.0718    1.7334    2.2508 H         1     PTX    0.0000
     57 H          30.6539    0.0385    2.6852 H         1     PTX    0.0000
     58 H          29.3016   -0.1697    0.5588 H         1     PTX    0.0000
     59 H          29.7160    1.5280    0.1317 H         1     PTX    0.0000
     60 H          28.5962    2.3306    2.2523 H         1     PTX    0.0000
     61 H          28.1766    0.6321    2.6703 H         1     PTX    0.0000
     62 H          26.8263    0.4459    0.5394 H         1     PTX    0.0000
     63 H          27.2408    2.1485    0.1320 H         1     PTX    0.0000
     64 H          26.1210    2.9255    2.2631 H         1     PTX    0.0000
     65 H          25.7000    1.2220    2.6588 H         1     PTX    0.0000
     66 H          24.3508    1.0656    0.5238 H         1     PTX    0.0000
     67 H          24.7652    2.7740    0.1417 H         1     PTX    0.0000
     68 H          23.6462    3.5185    2.2856 H         1     PTX    0.0000
     69 H          23.2241    1.8091    2.6538 H         1     PTX    0.0000
     70 H          21.8753    1.6887    0.5152 H         1     PTX    0.0000
     71 H          22.2894    3.4038    0.1634 H         1     PTX    0.0000
     72 H          21.1718    4.1088    2.3222 H         1     PTX    0.0000
     73 H          20.7489    2.3929    2.6578 H         1     PTX    0.0000
     74 H          19.3995    2.3149    0.5169 H         1     PTX    0.0000
     75 H          19.8133    4.0369    0.2001 H         1     PTX    0.0000
     76 H          18.6981    4.6964    2.3752 H         1     PTX    0.0000
     77 H          18.2741    2.9741    2.6736 H         1     PTX    0.0000
     78 H          16.9234    2.9443    0.5318 H         1     PTX    0.0000
     79 H          17.3378    4.6727    0.2538 H         1     PTX    0.0000
     80 H          16.2236    5.2830    2.4463 H         1     PTX    0.0000
     81 H          15.7996    3.5540    2.7041 H         1     PTX    0.0000
     82 H          14.4415    3.5692    0.5854 H         1     PTX    0.0000
     83 H          14.8692    5.3241    0.3495 H         1     PTX    0.0000
     84 H          10.4313    5.6985    2.1953 H         1     PTX    0.0000
     85 H          11.8613    6.4986    2.8873 H         1     PTX    0.0000
     86 H          11.4573    4.8308    3.4026 H         1     PTX    0.0000
     87 H          12.8191    6.8744    0.4234 H         1     PTX    0.0000
     88 H          12.8186    5.4572   -0.6959 H         1     PTX    0.0000
     89 H          11.2821    6.1341   -0.1033 H         1     PTX    0.0000
     90 H          10.1884    3.3430    1.8983 H         1     PTX    0.0000
     91 H          10.1980    4.1298    0.2510 H         1     PTX    0.0000
     92 H          11.0260    2.0030   -0.7566 H         1     PTX    0.0000
     93 H          11.0693    1.2246    0.8646 H         1     PTX    0.0000
     94 H           8.5867    1.5246    1.0990 H         1     PTX    0.0000
     95 H           8.5211    2.3586   -0.4934 H         1     PTX    0.0000
     96 H           9.3615    0.2870   -1.6366 H         1     PTX    0.0000
     97 H           9.4796   -0.5576   -0.0526 H         1     PTX    0.0000
     98 H           7.0052   -0.3096    0.2893 H         1     PTX    0.0000
     99 H           6.8644    0.5882   -1.2630 H         1     PTX    0.0000
    100 H           7.6940   -1.4195   -2.5232 H         1     PTX    0.0000
    101 H           7.8843   -2.3266   -0.9814 H         1     PTX    0.0000
    102 H           5.4207   -2.1346   -0.5389 H         1     PTX    0.0000
    103 H           5.2085   -1.1773   -2.0471 H         1     PTX    0.0000
    104 H           6.0234   -3.1175   -3.4176 H         1     PTX    0.0000
    105 H           6.2839   -4.0832   -1.9219 H         1     PTX    0.0000
    106 H           3.8350   -3.9448   -1.3838 H         1     PTX    0.0000
    107 H           3.5548   -2.9372   -2.8437 H         1     PTX    0.0000
    108 H           4.4177   -4.8608   -4.2972 H         1     PTX    0.0000
    109 H           4.6935   -5.8273   -2.8990 H         1     PTX    0.0000
    110 H           3.0910   -3.5878   -5.2244 H         1     PTX    0.0000
    111 H           2.1983   -4.6582   -6.3516 H         1     PTX    0.0000
    112 H           1.3938   -3.2883   -5.4822 H         1     PTX    0.0000
    113 H          -2.7905   -8.1489   -3.3601 H         1     PTX    0.0000
    114 H          -1.1370   -8.7686   -3.0154 H         1     PTX    0.0000
    115 H          -2.0597   -7.7283   -1.7876 H         1     PTX    0.0000
    116 H           0.0350   -7.9513    0.6739 H         1     PTX    0.0000
    117 H           1.7076   -8.1954    0.1123 H         1     PTX    0.0000
    118 H           1.0229   -6.4839    0.3495 H         1     PTX    0.0000
@<TRIPOS>BOND
     1     1     2     1
     2     1    47     1
     3     1    48     1
     4     1    49     1
     5     2     3     1
     6     2    50     1
     7     2    51     1
     8     3     4     1
     9     3    52     1
    10     3    53     1
    11     4     5     1
    12     4    54     1
    13     4    55     1
    14     5     6     1
    15     5    56     1
    16     5    57     1
    17     6     7     1
    18     6    58     1
    19     6    59     1
    20     7     8     1
    21     7    60     1
    22     7    61     1
    23     8     9     1
    24     8    62     1
    25     8    63     1
    26     9    10     1
    27     9    64     1
    28     9    65     1
    29    10    11     1
    30    10    66     1
    31    10    67     1
    32    11    12     1
    33    11    68     1
    34    11    69     1
    35    12    13     1
    36    12    70     1
    37    12    71     1
    38    13    14     1
    39    13    72     1
    40    13    73     1
    41    14    15     1
    42    14    74     1
    43    14    75     1
    44    15    16     1
    45    15    76     1
    46    15    77     1
    47    16    17     1
    48    16    78     1
    49    16    79     1
    50    17    18     1
    51    17    80     1
    52    17    81     1
    53    18    19     1
    54    18    82     1
    55    18    83     1
    56    19    20     1
    57    20    21     1
    58    20    22     1
    59    20    23     1
    60    21    84     1
    61    21    85     1
    62    21    86     1
    63    22    87     1
    64    22    88     1
    65    22    89     1
    66    23    24     1
    67    24    25     1
    68    24    90     1
    69    24    91     1
    70    25    26     1
    71    25    92     1
    72    25    93     1
    73    26    27     1
    74    26    94     1
    75    26    95     1
    76    27    28     1
    77    27    96     1
    78    27    97     1
    79    28    29     1
    80    28    98     1
    81    28    99     1
    82    29    30     1
    83    29   100     1
    84    29   101     1
    85    30    31     1
    86    30   102     1
    87    30   103     1
    88    31    32     1
    89    31   104     1
    90    31   105     1
    91    32    33     1
    92    32   106     1
    93    32   107     1
    94    33    34     1
    95    33   108     1
    96    33   109     1
    97    34    35     2
    98    34    45     1
    99    35    36     1
   100    35    37     1
   101    36   110     1
   102    36   111     1
   103    36   112     1
   104    37    38     2
   105    37    39     1
   106    39    40     1
   107    39    42     2
   108    40    41     1
   109    41   113     1
   110    41   114     1
   111    41   115     1
   112    42    43     1
   113    42    45     1
   114    43    44     1
   115    44   116     1
   116    44   117     1
   117    44   118     1
   118    45    46     2
