@<TRIPOS>MOLECULE
IDB
54 54 1 0 0
SMALL
USER_CHARGES


@<TRIPOS>ATOM
      1 C          12.4108   -2.4509    4.7723 C.3       1     IDB    0.0000
      2 O          11.7953   -1.3659    4.1232 O.3       1     IDB    0.0000
      3 C          10.5989   -1.4611    3.4325 C.2       1     IDB    0.0000
      4 C          10.1750   -0.3123    2.8511 C.2       1     IDB    0.0000
      5 O          11.0119    0.7743    3.0506 O.3       1     IDB    0.0000
      6 C          10.7547    2.0709    2.5708 C.3       1     IDB    0.0000
      7 C           9.0061   -0.2848    2.1418 C.2       1     IDB    0.0000
      8 O           8.6298    0.7438    1.6241 O.2       1     IDB    0.0000
      9 C           8.2622   -1.4212    2.0167 C.2       1     IDB    0.0000
     10 C           6.9429   -1.4759    1.2406 C.3       1     IDB    0.0000
     11 C           6.3158   -0.2610    0.5335 C.3       1     IDB    0.0000
     12 C           4.9863   -0.6213   -0.1576 C.3       1     IDB    0.0000
     13 C           4.3626    0.5938   -0.8644 C.3       1     IDB    0.0000
     14 C           3.0362    0.2432   -1.5583 C.3       1     IDB    0.0000
     15 C           2.4202    1.4633   -2.2623 C.3       1     IDB    0.0000
     16 C           1.0937    1.1200   -2.9596 C.3       1     IDB    0.0000
     17 C           0.4826    2.3436   -3.6618 C.3       1     IDB    0.0000
     18 C          -0.8438    2.0051   -4.3609 C.3       1     IDB    0.0000
     19 C          -1.4422    3.2252   -5.0546 C.3       1     IDB    0.0000
     20 O          -2.6571    2.8659   -5.6816 O.3       1     IDB    0.0000
     21 C           8.6969   -2.5603    2.5984 C.2       1     IDB    0.0000
     22 C           7.9331   -3.8782    2.5097 C.3       1     IDB    0.0000
     23 C           9.8591   -2.6002    3.3083 C.2       1     IDB    0.0000
     24 O          10.1971   -3.6540    3.8093 O.2       1     IDB    0.0000
     25 H          13.3562   -2.0734    5.2234 H         1     IDB    0.0000
     26 H          11.7759   -2.8209    5.6077 H         1     IDB    0.0000
     27 H          12.6899   -3.2404    4.0397 H         1     IDB    0.0000
     28 H          11.5937    2.7201    2.9089 H         1     IDB    0.0000
     29 H          10.7602    2.0882    1.4583 H         1     IDB    0.0000
     30 H           9.8236    2.4808    3.0216 H         1     IDB    0.0000
     31 H           7.0757   -2.2451    0.4404 H         1     IDB    0.0000
     32 H           6.1643   -1.8271    1.9618 H         1     IDB    0.0000
     33 H           6.1022    0.5464    1.2748 H         1     IDB    0.0000
     34 H           7.0088    0.1258   -0.2522 H         1     IDB    0.0000
     35 H           5.1611   -1.4314   -0.9051 H         1     IDB    0.0000
     36 H           4.2665   -1.0158    0.5985 H         1     IDB    0.0000
     37 H           4.1848    1.4041   -0.1180 H         1     IDB    0.0000
     38 H           5.0807    0.9894   -1.6215 H         1     IDB    0.0000
     39 H           3.2122   -0.5660   -2.3063 H         1     IDB    0.0000
     40 H           2.3159   -0.1511   -0.8027 H         1     IDB    0.0000
     41 H           2.2449    2.2719   -1.5135 H         1     IDB    0.0000
     42 H           3.1420    1.8576   -3.0165 H         1     IDB    0.0000
     43 H           1.2682    0.3120   -3.7092 H         1     IDB    0.0000
     44 H           0.3708    0.7264   -2.2061 H         1     IDB    0.0000
     45 H           0.3082    3.1516   -2.9120 H         1     IDB    0.0000
     46 H           1.2060    2.7375   -4.4148 H         1     IDB    0.0000
     47 H          -0.6730    1.1992   -5.1139 H         1     IDB    0.0000
     48 H          -1.5712    1.6134   -3.6104 H         1     IDB    0.0000
     49 H          -1.6695    4.0376   -4.3288 H         1     IDB    0.0000
     50 H          -0.7643    3.6203   -5.8438 H         1     IDB    0.0000
     51 H          -3.0292    3.6371   -6.1164 H         1     IDB    0.0000
     52 H           6.9879   -3.8689    1.9327 H         1     IDB    0.0000
     53 H           8.5600   -4.6586    2.0202 H         1     IDB    0.0000
     54 H           7.6467   -4.2305    3.5273 H         1     IDB    0.0000
@<TRIPOS>BOND
     1     1     2     1
     2     1    25     1
     3     1    26     1
     4     1    27     1
     5     2     3     1
     6     3     4     2
     7     3    23     1
     8     4     5     1
     9     4     7     1
    10     5     6     1
    11     6    28     1
    12     6    29     1
    13     6    30     1
    14     7     8     2
    15     7     9     1
    16     9    10     1
    17     9    21     2
    18    10    11     1
    19    10    31     1
    20    10    32     1
    21    11    12     1
    22    11    33     1
    23    11    34     1
    24    12    13     1
    25    12    35     1
    26    12    36     1
    27    13    14     1
    28    13    37     1
    29    13    38     1
    30    14    15     1
    31    14    39     1
    32    14    40     1
    33    15    16     1
    34    15    41     1
    35    15    42     1
    36    16    17     1
    37    16    43     1
    38    16    44     1
    39    17    18     1
    40    17    45     1
    41    17    46     1
    42    18    19     1
    43    18    47     1
    44    18    48     1
    45    19    20     1
    46    19    49     1
    47    19    50     1
    48    20    51     1
    49    21    22     1
    50    21    23     1
    51    22    52     1
    52    22    53     1
    53    22    54     1
    54    23    24     2
