@<TRIPOS>MOLECULE
LST
 87 90 0 0 0
SMALL
GASTEIGER

@<TRIPOS>ATOM
      1  C         -3.5060   -0.2700    0.9560 C.ar    1  LST        0.1119
      2  N         -3.5430    1.0430    0.9560 N.ar    1  LST       -0.2205
      3  C         -2.2310    1.4420    0.9560 C.ar    1  LST        0.1527
      4  C         -1.3910    0.3530    0.9560 C.ar    1  LST        0.0835
      5  N         -2.2210   -0.7340    0.9560 N.ar    1  LST       -0.3239
      6  C          0.1050    0.3570    0.9560 C.3     1  LST        0.0939
      7  O          0.5700    1.6800    0.9560 O.3     1  LST       -0.3431
      8  C         -1.8060   -2.1440    0.9560 C.3     1  LST        0.0498
      9  C         -3.8190   -4.2280   -2.2030 C.ar    1  LST       -0.0172
     10  C         -4.0540   -2.8680   -2.0050 C.ar    1  LST       -0.0537
     11  C         -3.3990   -2.1890   -0.9770 C.ar    1  LST       -0.0563
     12  C         -2.5090   -2.8720   -0.1470 C.ar    1  LST       -0.0277
     13  C         -2.2740   -4.2320   -0.3460 C.ar    1  LST       -0.0563
     14  C         -2.9290   -4.9100   -1.3740 C.ar    1  LST       -0.0537
     15  C         -4.4470   -4.8780   -3.1890 C.ar    1  LST       -0.0071
     16  C         -4.7920   -6.1900   -2.8660 C.ar    1  LST        0.0304
     17  C         -5.8630   -6.8080   -3.5120 C.ar    1  LST       -0.0503
     18  C         -6.5880   -6.1140   -4.4810 C.ar    1  LST       -0.0611
     19  C         -6.2420   -4.8020   -4.8030 C.ar    1  LST       -0.0611
     20  C         -5.1720   -4.1840   -4.1580 C.ar    1  LST       -0.0534
     21  N         -3.2460   -7.8620   -2.1790 N.ar    1  LST       -0.1331
     22  N         -2.6600   -8.3520   -0.8880 N.ar    1  LST       -0.1761
     23  N         -3.3260   -7.4520    0.1120 N.ar    1  LST       -0.0485
     24  N         -4.1470   -6.6010   -0.5210 N.ar    1  LST       -0.1080
     25  C         -4.0980   -6.8550   -1.9370 C.ar    1  LST        0.2049
     26 Cl         -1.7080    3.0790    0.9560 Cl      1  LST       -0.0600
     27  C         -4.7190   -1.1470    0.9560 C.3     1  LST        0.0057
     28  C         -5.9720   -0.2820    0.9560 C.3     1  LST       -0.0465
     29  C         -7.2060   -1.1740    0.9560 C.3     1  LST       -0.0555
     30  C         -8.4590   -0.3090    0.9560 C.3     1  LST       -0.0653
     31  C          1.9710    1.6180    0.9560 C.3     1  LST        0.1649
     32  O          2.4970    2.9170    0.9560 O.3     1  LST       -0.3492
     33  C          2.4450    0.8780    2.2000 C.3     1  LST       -0.0108
     34  C          2.4460    0.8780   -0.2880 C.3     1  LST       -0.0108
     35  C          3.8930    2.7890    0.9560 C.3     1  LST        0.0509
     36  C          4.5310    4.1720    0.9560 C.3     1  LST       -0.0294
     37  C          6.0470    4.0330    0.9560 C.3     1  LST       -0.0510
     38  C          6.6850    5.4160    0.9560 C.3     1  LST       -0.0530
     39  C          8.2020    5.2760    0.9560 C.3     1  LST       -0.0531
     40  C          8.8390    6.6590    0.9560 C.3     1  LST       -0.0533
     41  C         10.3560    6.5200    0.9560 C.3     1  LST       -0.0559
     42  C         10.9930    7.9030    0.9560 C.3     1  LST       -0.0653
     43  H          0.4770   -0.1660    0.0470 H       1  LST        0.0627
     44  H          0.4780   -0.1670    1.8650 H       1  LST        0.0627
     45  H         -2.0700   -2.6080    1.9330 H       1  LST        0.0542
     46  H         -0.7060   -2.2070    0.7990 H       1  LST        0.0542
     47  H         -4.7560   -2.3290   -2.6590 H       1  LST        0.0624
     48  H         -3.5840   -1.1170   -0.8200 H       1  LST        0.0621
     49  H         -1.5720   -4.7700    0.3080 H       1  LST        0.0621
     50  H         -2.7430   -5.9830   -1.5310 H       1  LST        0.0624
     51  H         -6.1350   -7.8430   -3.2570 H       1  LST        0.0625
     52  H         -7.4320   -6.6020   -4.9900 H       1  LST        0.0618
     53  H         -6.8140   -4.2550   -5.5670 H       1  LST        0.0618
     54  H         -4.8990   -3.1490   -4.4120 H       1  LST        0.0624
     55  H         -1.9860   -9.1010   -0.7300 H       1  LST        0.2143
     56  H         -4.7120   -1.7890    1.8650 H       1  LST        0.0343
     57  H         -4.7120   -1.7900    0.0470 H       1  LST        0.0343
     58  H         -5.9790    0.3600    0.0470 H       1  LST        0.0269
     59  H         -5.9790    0.3610    1.8650 H       1  LST        0.0269
     60  H         -7.1990   -1.8160    1.8650 H       1  LST        0.0263
     61  H         -7.1990   -1.8170    0.0470 H       1  LST        0.0263
     62  H         -9.3610   -0.9610    0.9560 H       1  LST        0.0230
     63  H         -8.4660    0.3330    0.0470 H       1  LST        0.0230
     64  H         -8.4660    0.3340    1.8650 H       1  LST        0.0230
     65  H          3.5570    0.8280    2.2010 H       1  LST        0.0281
     66  H          2.0280   -0.1530    2.2000 H       1  LST        0.0281
     67  H          2.0980    1.4200    3.1080 H       1  LST        0.0281
     68  H          1.5650    0.5670   -0.8940 H       1  LST        0.0281
     69  H          3.0940    1.5500   -0.8940 H       1  LST        0.0281
     70  H          3.0240   -0.0230    0.0150 H       1  LST        0.0281
     71  H          4.2140    2.2330    1.8650 H       1  LST        0.0561
     72  H          4.2140    2.2320    0.0470 H       1  LST        0.0561
     73  H          4.2100    4.7280    0.0470 H       1  LST        0.0287
     74  H          4.2100    4.7280    1.8650 H       1  LST        0.0287
     75  H          6.3680    3.4770    1.8650 H       1  LST        0.0266
     76  H          6.3690    3.4760    0.0470 H       1  LST        0.0266
     77  H          6.3640    5.9720    0.0470 H       1  LST        0.0265
     78  H          6.3640    5.9720    1.8650 H       1  LST        0.0265
     79  H          8.5230    4.7200    1.8650 H       1  LST        0.0265
     80  H          8.5230    4.7200    0.0470 H       1  LST        0.0265
     81  H          8.5180    7.2150    0.0470 H       1  LST        0.0265
     82  H          8.5180    7.2160    1.8650 H       1  LST        0.0265
     83  H         10.6770    5.9640    1.8650 H       1  LST        0.0263
     84  H         10.6770    5.9640    0.0470 H       1  LST        0.0263
     85  H         12.1020    7.8010    0.9560 H       1  LST        0.0230
     86  H         10.6720    8.4590    0.0470 H       1  LST        0.0230
     87  H         10.6720    8.4600    1.8650 H       1  LST        0.0230
@<TRIPOS>BOND
     1     1     2   ar
     2     1     5   ar
     3     1    27    1
     4     2     3   ar
     5     3     4   ar
     6     3    26    1
     7     4     5   ar
     8     4     6    1
     9     5     8    1
    10     6     7    1
    11     6    43    1
    12     6    44    1
    13     7    31    1
    14     8    12    1
    15     8    45    1
    16     8    46    1
    17     9    10   ar
    18     9    14   ar
    19     9    15    1
    20    10    11   ar
    21    10    47    1
    22    11    12   ar
    23    11    48    1
    24    12    13   ar
    25    13    14   ar
    26    13    49    1
    27    14    50    1
    28    15    16   ar
    29    15    20   ar
    30    16    17   ar
    31    16    25    1
    32    17    18   ar
    33    17    51    1
    34    18    19   ar
    35    18    52    1
    36    19    20   ar
    37    19    53    1
    38    20    54    1
    39    21    22   ar
    40    21    25   ar
    41    22    23   ar
    42    22    55    1
    43    23    24   ar
    44    24    25   ar
    45    27    28    1
    46    27    56    1
    47    27    57    1
    48    28    29    1
    49    28    58    1
    50    28    59    1
    51    29    30    1
    52    29    60    1
    53    29    61    1
    54    30    62    1
    55    30    63    1
    56    30    64    1
    57    31    32    1
    58    31    33    1
    59    31    34    1
    60    32    35    1
    61    33    65    1
    62    33    66    1
    63    33    67    1
    64    34    68    1
    65    34    69    1
    66    34    70    1
    67    35    36    1
    68    35    71    1
    69    35    72    1
    70    36    37    1
    71    36    73    1
    72    36    74    1
    73    37    38    1
    74    37    75    1
    75    37    76    1
    76    38    39    1
    77    38    77    1
    78    38    78    1
    79    39    40    1
    80    39    79    1
    81    39    80    1
    82    40    41    1
    83    40    81    1
    84    40    82    1
    85    41    42    1
    86    41    83    1
    87    41    84    1
    88    42    85    1
    89    42    86    1
    90    42    87    1
