@<TRIPOS>MOLECULE
EDS
180 179 1 0 0
SMALL
USER_CHARGES


@<TRIPOS>ATOM
      1 P           4.1661   -0.9295   -2.4188 P.3       1     EDS    0.0000
      2 O           5.1809   -1.8790   -2.9518 O.2       1     EDS    0.0000
      3 O           4.7404    0.5979   -2.5486 O.3       1     EDS    0.0000
      4 O           3.0007   -0.8300   -3.5797 O.3       1     EDS    0.0000
      5 O           3.4988   -1.3614   -0.8813 O.2       1     EDS   -1.0000
      6 C           4.5602    1.4760   -1.4662 C.3       1     EDS    0.0000
      7 C           5.1430    2.8404   -1.8281 C.3       1     EDS    0.0000
      8 N           4.8856    3.7829   -0.7377 N.am      1     EDS    0.0000
      9 C           5.5066    4.9900   -0.6278 C.2       1     EDS    0.0000
     10 O           5.1801    5.7100    0.2848 O.2       1     EDS    0.0000
     11 O           6.4555    5.3502   -1.5409 O.3       1     EDS    0.0000
     12 C           1.7621   -0.2528   -3.2524 C.3       1     EDS    0.0000
     13 C           0.7967   -0.3988   -4.4268 C.3       1     EDS    0.0000
     14 C           0.5828   -1.8582   -4.8322 C.3       1     EDS    0.0000
     15 O           0.1676   -2.5930   -3.7118 O.3       1     EDS    0.0000
     16 C          -0.0633   -3.9257   -3.8684 C.2       1     EDS    0.0000
     17 C          -0.3963   -4.5432   -2.5179 C.3       1     EDS    0.0000
     18 C          -0.9568   -5.9710   -2.6139 C.3       1     EDS    0.0000
     19 C          -1.3278   -6.5376   -1.2334 C.3       1     EDS    0.0000
     20 C          -1.9109   -7.9566   -1.3338 C.3       1     EDS    0.0000
     21 C          -2.2947   -8.5224    0.0434 C.3       1     EDS    0.0000
     22 C          -2.8926   -9.9349   -0.0635 C.3       1     EDS    0.0000
     23 C          -3.2802  -10.5039    1.3112 C.3       1     EDS    0.0000
     24 C          -3.8851  -11.9130    1.1986 C.3       1     EDS    0.0000
     25 C          -4.2712  -12.4874    2.5715 C.3       1     EDS    0.0000
     26 C          -4.8780  -13.8952    2.4542 C.3       1     EDS    0.0000
     27 C          -5.2596  -14.4755    3.8259 C.3       1     EDS    0.0000
     28 C          -5.8657  -15.8833    3.7049 C.3       1     EDS    0.0000
     29 C          -6.2424  -16.4686    5.0758 C.3       1     EDS    0.0000
     30 C          -6.8474  -17.8767    4.9528 C.3       1     EDS    0.0000
     31 C          -7.2203  -18.4651    6.3233 C.3       1     EDS    0.0000
     32 C          -7.8247  -19.8729    6.1996 C.3       1     EDS    0.0000
     33 C          -8.1936  -20.4584    7.5692 C.3       1     EDS    0.0000
     34 O          -0.0167   -4.5251   -4.9185 O.2       1     EDS    0.0000
     35 O          -0.4169    0.1854   -4.0446 O.3       1     EDS    0.0000
     36 C          -1.3082    0.5638   -5.0028 C.2       1     EDS    0.0000
     37 C          -2.5489    1.1401   -4.3353 C.3       1     EDS    0.0000
     38 C          -3.7117    1.4028   -5.3053 C.3       1     EDS    0.0000
     39 C          -4.9443    1.9678   -4.5801 C.3       1     EDS    0.0000
     40 C          -6.1191    2.2074   -5.5422 C.3       1     EDS    0.0000
     41 C          -7.3468    2.7827   -4.8172 C.3       1     EDS    0.0000
     42 C          -8.5304    3.0001   -5.7739 C.3       1     EDS    0.0000
     43 C          -9.7539    3.5868   -5.0511 C.3       1     EDS    0.0000
     44 C         -10.9437    3.7858   -6.0042 C.3       1     EDS    0.0000
     45 C         -12.1635    4.3839   -5.2846 C.3       1     EDS    0.0000
     46 C         -13.3579    4.5688   -6.2347 C.3       1     EDS    0.0000
     47 C         -14.5743    5.1776   -5.5183 C.3       1     EDS    0.0000
     48 C         -15.7718    5.3520   -6.4666 C.3       1     EDS    0.0000
     49 C         -16.9857    5.9697   -5.7536 C.3       1     EDS    0.0000
     50 C         -18.1850    6.1370   -6.7010 C.3       1     EDS    0.0000
     51 C         -19.3970    6.7612   -5.9904 C.3       1     EDS    0.0000
     52 C         -20.5974    6.9248   -6.9362 C.3       1     EDS    0.0000
     53 C         -21.8037    7.5514   -6.2242 C.3       1     EDS    0.0000
     54 O          -1.1496    0.4584   -6.1978 O.2       1     EDS    0.0000
     55 C           7.0495    6.6148   -1.4006 C.3       1     EDS    0.0000
     56 C           8.0946    6.7993   -2.4912 C.3       1     EDS    0.0000
     57 O           8.6726    8.0726   -2.3401 O.3       1     EDS    0.0000
     58 C           9.6814    8.3337   -3.2848 C.3       1     EDS    0.0000
     59 C          10.2253    9.7307   -3.0253 C.3       1     EDS    0.0000
     60 O          11.2613   10.0019   -3.9375 O.3       1     EDS    0.0000
     61 C          11.8134   11.2826   -3.7510 C.3       1     EDS    0.0000
     62 C          12.9450   11.4865   -4.7470 C.3       1     EDS    0.0000
     63 O          13.4954   12.7641   -4.5386 O.3       1     EDS    0.0000
     64 C          14.5740   13.0403   -5.3978 C.3       1     EDS    0.0000
     65 C          15.0942   14.4351   -5.0842 C.3       1     EDS    0.0000
     66 O          16.1917   14.7122   -5.9193 O.3       1     EDS    0.0000
     67 C          16.7357   15.9882   -5.6845 C.3       1     EDS    0.0000
     68 C          17.9227   16.1961   -6.6128 C.3       1     EDS    0.0000
     69 O          18.4670   17.4696   -6.3666 O.3       1     EDS    0.0000
     70 C          19.5823   17.7478   -7.1771 C.3       1     EDS    0.0000
     71 C          20.0967   19.1385   -6.8367 C.3       1     EDS    0.0000
     72 O          21.2157   19.4179   -7.6420 O.3       1     EDS    0.0000
     73 C          21.7532   20.6972   -7.3831 C.3       1     EDS    0.0000
     74 H           5.0776    1.0694   -0.5655 H         1     EDS    0.0000
     75 H           3.4712    1.5799   -1.2490 H         1     EDS    0.0000
     76 H           4.6669    3.2272   -2.7596 H         1     EDS    0.0000
     77 H           6.2398    2.7417   -2.0044 H         1     EDS    0.0000
     78 H           4.1644    3.5826   -0.0471 H         1     EDS    0.0000
     79 H           1.9127    0.8278   -3.0207 H         1     EDS    0.0000
     80 H           1.3402   -0.7498   -2.3491 H         1     EDS    0.0000
     81 H           1.2224    0.1731   -5.2870 H         1     EDS    0.0000
     82 H          -0.1883   -1.9406   -5.6314 H         1     EDS    0.0000
     83 H           1.5341   -2.2926   -5.2171 H         1     EDS    0.0000
     84 H           0.5342   -4.5457   -1.9026 H         1     EDS    0.0000
     85 H          -1.1469   -3.8942   -2.0073 H         1     EDS    0.0000
     86 H          -1.8641   -5.9662   -3.2644 H         1     EDS    0.0000
     87 H          -0.2009   -6.6380   -3.0931 H         1     EDS    0.0000
     88 H          -0.4208   -6.5534   -0.5835 H         1     EDS    0.0000
     89 H          -2.0754   -5.8666   -0.7470 H         1     EDS    0.0000
     90 H          -2.8143   -7.9381   -1.9888 H         1     EDS    0.0000
     91 H          -1.1632   -8.6305   -1.8155 H         1     EDS    0.0000
     92 H          -1.3905   -8.5508    0.6967 H         1     EDS    0.0000
     93 H          -3.0362   -7.8439    0.5283 H         1     EDS    0.0000
     94 H          -3.7961   -9.9044   -0.7179 H         1     EDS    0.0000
     95 H          -2.1517  -10.6138   -0.5489 H         1     EDS    0.0000
     96 H          -2.3763  -10.5401    1.9646 H         1     EDS    0.0000
     97 H          -4.0179   -9.8232    1.7988 H         1     EDS    0.0000
     98 H          -4.7901  -11.8752    0.5467 H         1     EDS    0.0000
     99 H          -3.1485  -12.5928    0.7080 H         1     EDS    0.0000
    100 H          -3.3659  -12.5278    3.2229 H         1     EDS    0.0000
    101 H          -5.0067  -11.8075    3.0636 H         1     EDS    0.0000
    102 H          -5.7851  -13.8535    1.8055 H         1     EDS    0.0000
    103 H          -4.1437  -14.5734    1.9580 H         1     EDS    0.0000
    104 H          -4.3523  -14.5181    4.4743 H         1     EDS    0.0000
    105 H          -5.9940  -13.7981    4.3230 H         1     EDS    0.0000
    106 H          -6.7749  -15.8398    3.0592 H         1     EDS    0.0000
    107 H          -5.1325  -16.5592    3.2040 H         1     EDS    0.0000
    108 H          -5.3331  -16.5122    5.7212 H         1     EDS    0.0000
    109 H          -6.9759  -15.7934    5.5773 H         1     EDS    0.0000
    110 H          -7.7582  -17.8326    4.3094 H         1     EDS    0.0000
    111 H          -6.1148  -18.5508    4.4486 H         1     EDS    0.0000
    112 H          -6.3097  -18.5100    6.9669 H         1     EDS    0.0000
    113 H          -7.9532  -17.7920    6.8283 H         1     EDS    0.0000
    114 H          -8.7383  -19.8327    5.5594 H         1     EDS    0.0000
    115 H          -7.0945  -20.5504    5.6957 H         1     EDS    0.0000
    116 H          -8.6304  -21.4782    7.4634 H         1     EDS    0.0000
    117 H          -7.2975  -20.5402    8.2259 H         1     EDS    0.0000
    118 H          -8.9443  -19.8208    8.0898 H         1     EDS    0.0000
    119 H          -2.8896    0.4268   -3.5475 H         1     EDS    0.0000
    120 H          -2.2575    2.0943   -3.8361 H         1     EDS    0.0000
    121 H          -3.3869    2.1251   -6.0918 H         1     EDS    0.0000
    122 H          -3.9888    0.4491   -5.8150 H         1     EDS    0.0000
    123 H          -5.2624    1.2562   -3.7815 H         1     EDS    0.0000
    124 H          -4.6712    2.9283   -4.0818 H         1     EDS    0.0000
    125 H          -5.8014    2.9121   -6.3471 H         1     EDS    0.0000
    126 H          -6.3967    1.2440   -6.0322 H         1     EDS    0.0000
    127 H          -7.6552    2.0857   -4.0020 H         1     EDS    0.0000
    128 H          -7.0726    3.7537   -4.3404 H         1     EDS    0.0000
    129 H          -8.2208    3.6894   -6.5952 H         1     EDS    0.0000
    130 H          -8.8094    2.0264   -6.2425 H         1     EDS    0.0000
    131 H         -10.0560    2.9043   -4.2215 H         1     EDS    0.0000
    132 H          -9.4778    4.5666   -4.5938 H         1     EDS    0.0000
    133 H         -10.6399    4.4608   -6.8394 H         1     EDS    0.0000
    134 H         -11.2244    2.8037   -6.4538 H         1     EDS    0.0000
    135 H         -12.4616    3.7145   -4.4429 H         1     EDS    0.0000
    136 H         -11.8849    5.3707   -4.8439 H         1     EDS    0.0000
    137 H         -13.0580    5.2314   -7.0811 H         1     EDS    0.0000
    138 H         -13.6408    3.5803   -6.6686 H         1     EDS    0.0000
    139 H         -14.8701    4.5192   -4.6672 H         1     EDS    0.0000
    140 H         -14.2930    6.1695   -5.0913 H         1     EDS    0.0000
    141 H         -15.4743    6.0047   -7.3216 H         1     EDS    0.0000
    142 H         -16.0566    4.3587   -6.8882 H         1     EDS    0.0000
    143 H         -17.2806    5.3202   -4.8954 H         1     EDS    0.0000
    144 H         -16.7020    6.9653   -5.3368 H         1     EDS    0.0000
    145 H         -17.8889    6.7826   -7.5618 H         1     EDS    0.0000
    146 H         -18.4714    5.1406   -7.1139 H         1     EDS    0.0000
    147 H         -19.6923    6.1177   -5.1278 H         1     EDS    0.0000
    148 H         -19.1119    7.7592   -5.5803 H         1     EDS    0.0000
    149 H         -20.3072    7.5679   -7.8013 H         1     EDS    0.0000
    150 H         -20.8897    5.9282   -7.3454 H         1     EDS    0.0000
    151 H         -22.6659    7.6629   -6.9214 H         1     EDS    0.0000
    152 H         -22.1386    6.9199   -5.3697 H         1     EDS    0.0000
    153 H         -21.5557    8.5626   -5.8280 H         1     EDS    0.0000
    154 H           6.2635    7.4008   -1.4933 H         1     EDS    0.0000
    155 H           7.5383    6.6839   -0.4003 H         1     EDS    0.0000
    156 H           8.8843    6.0182   -2.3972 H         1     EDS    0.0000
    157 H           7.6175    6.7261   -3.4959 H         1     EDS    0.0000
    158 H          10.4962    7.5809   -3.1748 H         1     EDS    0.0000
    159 H           9.2547    8.2731   -4.3126 H         1     EDS    0.0000
    160 H           9.4124   10.4828   -3.1533 H         1     EDS    0.0000
    161 H          10.6241    9.7910   -1.9858 H         1     EDS    0.0000
    162 H          11.0237   12.0530   -3.9112 H         1     EDS    0.0000
    163 H          12.2085   11.3685   -2.7120 H         1     EDS    0.0000
    164 H          13.7321   10.7128   -4.5903 H         1     EDS    0.0000
    165 H          12.5559   11.4154   -5.7891 H         1     EDS    0.0000
    166 H          15.3806   12.2885   -5.2336 H         1     EDS    0.0000
    167 H          14.2287   12.9897   -6.4565 H         1     EDS    0.0000
    168 H          14.2921   15.1883   -5.2634 H         1     EDS    0.0000
    169 H          15.4184   14.4859   -4.0187 H         1     EDS    0.0000
    170 H          15.9595   16.7638   -5.8811 H         1     EDS    0.0000
    171 H          17.0700   16.0594   -4.6233 H         1     EDS    0.0000
    172 H          18.6969   15.4178   -6.4188 H         1     EDS    0.0000
    173 H          17.5909   16.1330   -7.6752 H         1     EDS    0.0000
    174 H          20.3782   16.9913   -6.9849 H         1     EDS    0.0000
    175 H          19.2812   17.7056   -8.2496 H         1     EDS    0.0000
    176 H          19.3020   19.8958   -7.0314 H         1     EDS    0.0000
    177 H          20.3936   19.1814   -5.7630 H         1     EDS    0.0000
    178 H          22.6294   20.8441   -8.0534 H         1     EDS    0.0000
    179 H          20.9986   21.4848   -7.6029 H         1     EDS    0.0000
    180 H          22.0956   20.7657   -6.3267 H         1     EDS    0.0000
@<TRIPOS>BOND
     1     1     2     2
     2     1     3     1
     3     1     4     1
     4     1     5     1
     5     3     6     1
     6     4    12     1
     7     6     7     1
     8     6    74     1
     9     6    75     1
    10     7     8     1
    11     7    76     1
    12     7    77     1
    13     8     9     1
    14     8    78     1
    15     9    10     2
    16     9    11     1
    17    11    55     1
    18    12    13     1
    19    12    79     1
    20    12    80     1
    21    13    14     1
    22    13    35     1
    23    13    81     1
    24    14    15     1
    25    14    82     1
    26    14    83     1
    27    15    16     1
    28    16    17     1
    29    16    34     2
    30    17    18     1
    31    17    84     1
    32    17    85     1
    33    18    19     1
    34    18    86     1
    35    18    87     1
    36    19    20     1
    37    19    88     1
    38    19    89     1
    39    20    21     1
    40    20    90     1
    41    20    91     1
    42    21    22     1
    43    21    92     1
    44    21    93     1
    45    22    23     1
    46    22    94     1
    47    22    95     1
    48    23    24     1
    49    23    96     1
    50    23    97     1
    51    24    25     1
    52    24    98     1
    53    24    99     1
    54    25    26     1
    55    25   100     1
    56    25   101     1
    57    26    27     1
    58    26   102     1
    59    26   103     1
    60    27    28     1
    61    27   104     1
    62    27   105     1
    63    28    29     1
    64    28   106     1
    65    28   107     1
    66    29    30     1
    67    29   108     1
    68    29   109     1
    69    30    31     1
    70    30   110     1
    71    30   111     1
    72    31    32     1
    73    31   112     1
    74    31   113     1
    75    32    33     1
    76    32   114     1
    77    32   115     1
    78    33   116     1
    79    33   117     1
    80    33   118     1
    81    35    36     1
    82    36    37     1
    83    36    54     2
    84    37    38     1
    85    37   119     1
    86    37   120     1
    87    38    39     1
    88    38   121     1
    89    38   122     1
    90    39    40     1
    91    39   123     1
    92    39   124     1
    93    40    41     1
    94    40   125     1
    95    40   126     1
    96    41    42     1
    97    41   127     1
    98    41   128     1
    99    42    43     1
   100    42   129     1
   101    42   130     1
   102    43    44     1
   103    43   131     1
   104    43   132     1
   105    44    45     1
   106    44   133     1
   107    44   134     1
   108    45    46     1
   109    45   135     1
   110    45   136     1
   111    46    47     1
   112    46   137     1
   113    46   138     1
   114    47    48     1
   115    47   139     1
   116    47   140     1
   117    48    49     1
   118    48   141     1
   119    48   142     1
   120    49    50     1
   121    49   143     1
   122    49   144     1
   123    50    51     1
   124    50   145     1
   125    50   146     1
   126    51    52     1
   127    51   147     1
   128    51   148     1
   129    52    53     1
   130    52   149     1
   131    52   150     1
   132    53   151     1
   133    53   152     1
   134    53   153     1
   135    55    56     1
   136    55   154     1
   137    55   155     1
   138    56    57     1
   139    56   156     1
   140    56   157     1
   141    57    58     1
   142    58    59     1
   143    58   158     1
   144    58   159     1
   145    59    60     1
   146    59   160     1
   147    59   161     1
   148    60    61     1
   149    61    62     1
   150    61   162     1
   151    61   163     1
   152    62    63     1
   153    62   164     1
   154    62   165     1
   155    63    64     1
   156    64    65     1
   157    64   166     1
   158    64   167     1
   159    65    66     1
   160    65   168     1
   161    65   169     1
   162    66    67     1
   163    67    68     1
   164    67   170     1
   165    67   171     1
   166    68    69     1
   167    68   172     1
   168    68   173     1
   169    69    70     1
   170    70    71     1
   171    70   174     1
   172    70   175     1
   173    71    72     1
   174    71   176     1
   175    71   177     1
   176    72    73     1
   177    73   178     1
   178    73   179     1
   179    73   180     1
