@<TRIPOS>MOLECULE
EPD
102 101 1 0 0
SMALL
USER_CHARGES


@<TRIPOS>ATOM
      1 O         -19.2327    6.5680   -4.4092 O.3       1     EPD    0.0000
      2 C         -19.2170    5.1633   -4.2283 C.3       1     EPD    0.0000
      3 C         -18.2477    4.8027   -3.1058 C.2       1     EPD    0.0000
      4 C         -20.6447    4.6870   -3.9789 C.3       1     EPD    0.0000
      5 O         -16.9671    5.0432   -3.5081 O.3       1     EPD    0.0000
      6 O         -18.5691    4.3645   -2.0243 O.2       1     EPD    0.0000
      7 C         -15.9104    4.8160   -2.6010 C.3       1     EPD    0.0000
      8 C         -14.5913    4.6300   -3.3593 C.2       1     EPD    0.0000
      9 C         -15.8057    5.9828   -1.6185 C.3       1     EPD    0.0000
     10 O         -13.6561    4.0687   -2.5421 O.3       1     EPD    0.0000
     11 O         -14.4146    4.9346   -4.5176 O.2       1     EPD    0.0000
     12 C         -12.3699    3.7973   -3.0551 C.3       1     EPD    0.0000
     13 C         -11.3595    3.6835   -1.9082 C.2       1     EPD    0.0000
     14 C         -12.3929    2.5064   -3.8737 C.3       1     EPD    0.0000
     15 O         -10.0910    3.8464   -2.3785 O.3       1     EPD    0.0000
     16 O         -11.6583    3.4786   -0.7531 O.2       1     EPD    0.0000
     17 C          -9.0114    3.7860   -1.4720 C.3       1     EPD    0.0000
     18 C          -7.7159    3.4431   -2.2158 C.2       1     EPD    0.0000
     19 C          -8.8673    5.1201   -0.7398 C.3       1     EPD    0.0000
     20 O          -6.7898    2.9509   -1.3463 O.3       1     EPD    0.0000
     21 O          -7.5517    3.5932   -3.4057 O.2       1     EPD    0.0000
     22 C          -5.5225    2.5690   -1.8349 C.3       1     EPD    0.0000
     23 C          -4.5003    2.5695   -0.6929 C.2       1     EPD    0.0000
     24 C          -5.6020    1.1826   -2.4735 C.3       1     EPD    0.0000
     25 O          -3.2364    2.6931   -1.1870 O.3       1     EPD    0.0000
     26 O          -4.7896    2.4737    0.4787 O.2       1     EPD    0.0000
     27 C          -2.1521    2.7306   -0.2849 C.3       1     EPD    0.0000
     28 C          -0.8554    2.3408   -1.0030 C.2       1     EPD    0.0000
     29 C          -2.0173    4.1298    0.3156 C.3       1     EPD    0.0000
     30 O           0.0322    1.8027   -0.1208 O.3       1     EPD    0.0000
     31 O          -0.6602    2.5039   -2.1869 O.2       1     EPD    0.0000
     32 C           1.2881    1.4203   -0.6149 C.3       1     EPD    0.0000
     33 C           2.1348    0.9195    0.5458 C.3       1     EPD    0.0000
     34 O           3.3953    0.5326    0.0550 O.3       1     EPD    0.0000
     35 C           4.2545    0.0804    1.0727 C.3       1     EPD    0.0000
     36 C           5.5829   -0.3225    0.4506 C.3       1     EPD    0.0000
     37 O           6.4468   -0.7502    1.4750 O.3       1     EPD    0.0000
     38 C           7.7048   -1.1514    0.9903 C.3       1     EPD    0.0000
     39 C           8.5694   -1.5709    2.1696 C.3       1     EPD    0.0000
     40 O           9.8275   -1.9754    1.6875 O.3       1     EPD    0.0000
     41 C          10.7006   -2.3651    2.7193 C.3       1     EPD    0.0000
     42 C          12.0256   -2.7908    2.1051 C.3       1     EPD    0.0000
     43 O          12.9012   -3.1680    3.1393 O.3       1     EPD    0.0000
     44 C          14.1565   -3.5842    2.6601 C.3       1     EPD    0.0000
     45 C          15.0320   -3.9585    3.8466 C.3       1     EPD    0.0000
     46 O          16.2861   -4.3789    3.3680 O.3       1     EPD    0.0000
     47 C          17.1662   -4.7400    4.4042 C.3       1     EPD    0.0000
     48 C          18.4865   -5.1823    3.7916 C.3       1     EPD    0.0000
     49 O          19.3685   -5.5414    4.8270 O.3       1     EPD    0.0000
     50 C          20.6217   -5.9674    4.3366 C.3       1     EPD    0.0000
     51 H         -19.7335    6.8021   -5.1929 H         1     EPD    0.0000
     52 H         -18.8402    4.7147   -5.1773 H         1     EPD    0.0000
     53 H         -20.6827    3.5803   -3.8552 H         1     EPD    0.0000
     54 H         -21.3079    4.9528   -4.8340 H         1     EPD    0.0000
     55 H         -21.0740    5.1534   -3.0630 H         1     EPD    0.0000
     56 H         -16.0965    3.8572   -2.0614 H         1     EPD    0.0000
     57 H         -14.9966    5.8129   -0.8720 H         1     EPD    0.0000
     58 H         -16.7497    6.1310   -1.0474 H         1     EPD    0.0000
     59 H         -15.5806    6.9333   -2.1542 H         1     EPD    0.0000
     60 H         -12.0417    4.6605   -3.6814 H         1     EPD    0.0000
     61 H         -11.3901    2.2845   -4.3051 H         1     EPD    0.0000
     62 H         -13.1085    2.5660   -4.7243 H         1     EPD    0.0000
     63 H         -12.6901    1.6397   -3.2401 H         1     EPD    0.0000
     64 H          -9.1912    2.9540   -0.7506 H         1     EPD    0.0000
     65 H          -8.0318    5.0878   -0.0037 H         1     EPD    0.0000
     66 H          -9.7901    5.3859   -0.1766 H         1     EPD    0.0000
     67 H          -8.6572    5.9462   -1.4570 H         1     EPD    0.0000
     68 H          -5.1768    3.3289   -2.5750 H         1     EPD    0.0000
     69 H          -4.6121    0.8686   -2.8766 H         1     EPD    0.0000
     70 H          -6.3245    1.1565   -3.3201 H         1     EPD    0.0000
     71 H          -5.9237    0.4193   -1.7286 H         1     EPD    0.0000
     72 H          -2.3207    1.9707    0.5144 H         1     EPD    0.0000
     73 H          -1.1675    4.1767    1.0345 H         1     EPD    0.0000
     74 H          -2.9339    4.4343    0.8691 H         1     EPD    0.0000
     75 H          -1.8328    4.8885   -0.4790 H         1     EPD    0.0000
     76 H           1.7809    2.3006   -1.0902 H         1     EPD    0.0000
     77 H           1.1527    0.6106   -1.3697 H         1     EPD    0.0000
     78 H           2.2624    1.7323    1.2980 H         1     EPD    0.0000
     79 H           1.6402    0.0439    1.0269 H         1     EPD    0.0000
     80 H           4.4156    0.8996    1.8115 H         1     EPD    0.0000
     81 H           3.7941   -0.7958    1.5856 H         1     EPD    0.0000
     82 H           5.4265   -1.1536   -0.2755 H         1     EPD    0.0000
     83 H           6.0358    0.5499   -0.0754 H         1     EPD    0.0000
     84 H           7.5755   -2.0081    0.2889 H         1     EPD    0.0000
     85 H           8.1844   -0.3007    0.4526 H         1     EPD    0.0000
     86 H           8.6983   -0.7121    2.8685 H         1     EPD    0.0000
     87 H           8.0894   -2.4197    2.7098 H         1     EPD    0.0000
     88 H          10.8624   -1.5062    3.4114 H         1     EPD    0.0000
     89 H          10.2528   -3.2162    3.2830 H         1     EPD    0.0000
     90 H          11.8660   -3.6552    1.4196 H         1     EPD    0.0000
     91 H          12.4697   -1.9421    1.5348 H         1     EPD    0.0000
     92 H          14.0240   -4.4669    1.9923 H         1     EPD    0.0000
     93 H          14.6294   -2.7531    2.0871 H         1     EPD    0.0000
     94 H          15.1663   -3.0745    4.5124 H         1     EPD    0.0000
     95 H          14.5579   -4.7873    4.4218 H         1     EPD    0.0000
     96 H          17.3325   -3.8628    5.0717 H         1     EPD    0.0000
     97 H          16.7224   -5.5758    4.9935 H         1     EPD    0.0000
     98 H          18.3209   -6.0604    3.1251 H         1     EPD    0.0000
     99 H          18.9300   -4.3474    3.2007 H         1     EPD    0.0000
    100 H          21.2606   -6.2315    5.2089 H         1     EPD    0.0000
    101 H          20.4995   -6.8693    3.6965 H         1     EPD    0.0000
    102 H          21.1133   -5.1466    3.7686 H         1     EPD    0.0000
@<TRIPOS>BOND
     1     1     2     1
     2     1    51     1
     3     2     3     1
     4     2     4     1
     5     2    52     1
     6     3     5     1
     7     3     6     2
     8     4    53     1
     9     4    54     1
    10     4    55     1
    11     5     7     1
    12     7     8     1
    13     7     9     1
    14     7    56     1
    15     8    10     1
    16     8    11     2
    17     9    57     1
    18     9    58     1
    19     9    59     1
    20    10    12     1
    21    12    13     1
    22    12    14     1
    23    12    60     1
    24    13    15     1
    25    13    16     2
    26    14    61     1
    27    14    62     1
    28    14    63     1
    29    15    17     1
    30    17    18     1
    31    17    19     1
    32    17    64     1
    33    18    20     1
    34    18    21     2
    35    19    65     1
    36    19    66     1
    37    19    67     1
    38    20    22     1
    39    22    23     1
    40    22    24     1
    41    22    68     1
    42    23    25     1
    43    23    26     2
    44    24    69     1
    45    24    70     1
    46    24    71     1
    47    25    27     1
    48    27    28     1
    49    27    29     1
    50    27    72     1
    51    28    30     1
    52    28    31     2
    53    29    73     1
    54    29    74     1
    55    29    75     1
    56    30    32     1
    57    32    33     1
    58    32    76     1
    59    32    77     1
    60    33    34     1
    61    33    78     1
    62    33    79     1
    63    34    35     1
    64    35    36     1
    65    35    80     1
    66    35    81     1
    67    36    37     1
    68    36    82     1
    69    36    83     1
    70    37    38     1
    71    38    39     1
    72    38    84     1
    73    38    85     1
    74    39    40     1
    75    39    86     1
    76    39    87     1
    77    40    41     1
    78    41    42     1
    79    41    88     1
    80    41    89     1
    81    42    43     1
    82    42    90     1
    83    42    91     1
    84    43    44     1
    85    44    45     1
    86    44    92     1
    87    44    93     1
    88    45    46     1
    89    45    94     1
    90    45    95     1
    91    46    47     1
    92    47    48     1
    93    47    96     1
    94    47    97     1
    95    48    49     1
    96    48    98     1
    97    48    99     1
    98    49    50     1
    99    50   100     1
   100    50   101     1
   101    50   102     1
