@<TRIPOS>MOLECULE
PTX
149 157 1 0 0
SMALL
USER_CHARGES


@<TRIPOS>ATOM
      1 C           7.8019   -4.8490   -3.1468 C.3       1     PTX    0.0000
      2 C           8.3583   -4.7822   -1.7380 C.2       1     PTX    0.0000
      3 O           8.9585   -5.6768   -1.1882 O.2       1     PTX    0.0000
      4 O           8.0813   -3.5638   -1.1969 O.3       1     PTX    0.0000
      5 C           8.5442   -3.2339    0.1011 C.3       1     PTX    0.0000
      6 C          10.0659   -2.9247    0.0581 C.2       1     PTX    0.0000
      7 O          10.8037   -3.7705    0.5205 O.2       1     PTX    0.0000
      8 C          10.6888   -1.5999   -0.4872 C.3       1     PTX    0.0000
      9 C           9.8857   -1.1629   -1.7354 C.3       1     PTX    0.0000
     10 C          12.1286   -1.9206   -0.9865 C.3       1     PTX    0.0000
     11 O          12.4776   -1.1170   -2.0941 O.3       1     PTX    0.0000
     12 C          13.2204   -1.7636    0.0669 C.3       1     PTX    0.0000
     13 C          13.3131   -0.3484    0.6088 C.3       1     PTX    0.0000
     14 O          13.5964    0.6021   -0.3923 O.3       1     PTX    0.0000
     15 C          12.3702    1.2735   -0.1596 C.3       1     PTX    0.0000
     16 C          11.9653    0.2945    0.9458 C.3       1     PTX    0.0000
     17 O          11.9431    0.7922    2.2515 O.3       1     PTX    0.0000
     18 C          12.8409    1.6630    2.7883 C.2       1     PTX    0.0000
     19 C          12.4495    1.9517    4.2263 C.3       1     PTX    0.0000
     20 O          13.8038    2.1484    2.2417 O.2       1     PTX    0.0000
     21 C          10.7071   -0.5614    0.6950 C.3       1     PTX    0.0000
     22 C           9.3838    0.2078    0.9365 C.3       1     PTX    0.0000
     23 O           9.6355    1.5830    1.0802 O.3       1     PTX    0.0000
     24 C           9.1521    2.5433    0.2172 C.2       1     PTX    0.0000
     25 O           8.5178    2.2138   -0.7665 O.2       1     PTX    0.0000
     26 C           9.3835    3.8666    0.4782 C.ar      1     PTX    0.0000
     27 C           8.9277    4.8439   -0.3305 C.ar      1     PTX    0.0000
     28 C           9.1686    6.1356   -0.0537 C.ar      1     PTX    0.0000
     29 C           9.8711    6.4742    1.0370 C.ar      1     PTX    0.0000
     30 C          10.3305    5.5120    1.8498 C.ar      1     PTX    0.0000
     31 C          10.0872    4.2217    1.5712 C.ar      1     PTX    0.0000
     32 C           8.4825   -0.2514    2.1148 C.3       1     PTX    0.0000
     33 O           9.1111    0.1706    3.2946 O.3       1     PTX    0.0000
     34 C           7.1296    0.4750    1.9989 C.3       1     PTX    0.0000
     35 C           6.3125   -0.0373    0.7985 C.3       1     PTX    0.0000
     36 O           4.9226   -0.0476    1.0242 O.3       1     PTX    0.0000
     37 C           4.2645    1.1193    1.2714 C.2       1     PTX    0.0000
     38 O           4.7910    2.1610    1.5931 O.2       1     PTX    0.0000
     39 C           2.7726    0.9467    0.9513 C.3       1     PTX    0.0000
     40 O           2.0838    2.1868    0.9392 O.3       1     PTX    0.0000
     41 C           1.8415    2.7675   -0.3286 C.3       1     PTX    0.0000
     42 C           1.1349    4.0929   -0.0490 C.3       1     PTX    0.0000
     43 C           3.1391    2.9975   -1.0961 C.3       1     PTX    0.0000
     44 O           0.9468    1.8610   -0.9338 O.3       1     PTX    0.0000
     45 C           0.5820    2.1041   -2.2635 C.3       1     PTX    0.0000
     46 C          -0.9343    1.9220   -2.3839 C.3       1     PTX    0.0000
     47 C          -1.4017    2.1012   -3.8353 C.3       1     PTX    0.0000
     48 C          -0.6795    1.1190   -4.7724 C.3       1     PTX    0.0000
     49 C          -1.1264    1.3024   -6.2327 C.3       1     PTX    0.0000
     50 C          -0.3965    0.3211   -7.1611 C.3       1     PTX    0.0000
     51 C           1.1250    0.4779   -7.0346 C.3       1     PTX    0.0000
     52 C           1.5740    0.2967   -5.5776 C.3       1     PTX    0.0000
     53 C           0.8463    1.2833   -4.6481 C.3       1     PTX    0.0000
     54 C           1.2899    1.1064   -3.1862 C.3       1     PTX    0.0000
     55 C           2.0053    0.0041    1.9055 C.3       1     PTX    0.0000
     56 N           0.5911    0.0567    1.4907 N.am      1     PTX    0.0000
     57 C          -0.4007   -0.8514    1.7431 C.2       1     PTX    0.0000
     58 O          -1.3034   -0.8400    0.9381 O.2       1     PTX    0.0000
     59 C          -0.3266   -1.8164    2.7049 C.ar      1     PTX    0.0000
     60 C           0.3340   -1.6298    3.8628 C.ar      1     PTX    0.0000
     61 C           0.3978   -2.5941    4.7947 C.ar      1     PTX    0.0000
     62 C          -0.2137   -3.7693    4.5911 C.ar      1     PTX    0.0000
     63 C          -0.9016   -3.9623    3.4570 C.ar      1     PTX    0.0000
     64 C          -0.9631   -2.9924    2.5307 C.ar      1     PTX    0.0000
     65 C           2.5388   -1.4146    1.8045 C.ar      1     PTX    0.0000
     66 C           2.3872   -2.1313    0.6751 C.ar      1     PTX    0.0000
     67 C           2.8589   -3.3837    0.5782 C.ar      1     PTX    0.0000
     68 C           3.4861   -3.9470    1.6210 C.ar      1     PTX    0.0000
     69 C           3.6409   -3.2479    2.7546 C.ar      1     PTX    0.0000
     70 C           3.1811   -1.9900    2.8375 C.ar      1     PTX    0.0000
     71 C           6.7645   -1.3813    0.2104 C.2       1     PTX    0.0000
     72 C           6.0802   -1.6957   -1.1061 C.3       1     PTX    0.0000
     73 C           7.7527   -2.1175    0.7775 C.2       1     PTX    0.0000
     74 C           8.1448   -1.7625    2.2113 C.3       1     PTX    0.0000
     75 C           9.1909   -2.6366    2.9575 C.3       1     PTX    0.0000
     76 C           6.8899   -2.0949    3.0798 C.3       1     PTX    0.0000
     77 H           8.0182   -5.8376   -3.6107 H         1     PTX    0.0000
     78 H           6.6975   -4.7059   -3.1340 H         1     PTX    0.0000
     79 H           8.2636   -4.0592   -3.7821 H         1     PTX    0.0000
     80 H           8.3638   -4.1256    0.7467 H         1     PTX    0.0000
     81 H          10.1617   -0.1416   -2.0780 H         1     PTX    0.0000
     82 H          10.0416   -1.8679   -2.5836 H         1     PTX    0.0000
     83 H           8.7915   -1.1318   -1.5935 H         1     PTX    0.0000
     84 H          12.1672   -2.9603   -1.3942 H         1     PTX    0.0000
     85 H          13.3972   -0.8482   -2.0417 H         1     PTX    0.0000
     86 H          13.0335   -2.4517    0.9234 H         1     PTX    0.0000
     87 H          14.2086   -2.0552   -0.3622 H         1     PTX    0.0000
     88 H          14.0824   -0.2760    1.4098 H         1     PTX    0.0000
     89 H          12.5371    2.3284    0.1374 H         1     PTX    0.0000
     90 H          11.7289    1.2215   -1.0637 H         1     PTX    0.0000
     91 H          11.3985    2.3152    4.2843 H         1     PTX    0.0000
     92 H          12.5467    1.0290    4.8421 H         1     PTX    0.0000
     93 H          13.1079    2.7343    4.6662 H         1     PTX    0.0000
     94 H          10.8395   -1.1983    1.5935 H         1     PTX    0.0000
     95 H           8.7856    0.0708    0.0250 H         1     PTX    0.0000
     96 H           8.3450    4.6288   -1.2414 H         1     PTX    0.0000
     97 H           8.7888    6.9245   -0.7250 H         1     PTX    0.0000
     98 H          10.0695    7.5349    1.2637 H         1     PTX    0.0000
     99 H          10.9097    5.7836    2.7486 H         1     PTX    0.0000
    100 H          10.4891    3.4735    2.2735 H         1     PTX    0.0000
    101 H           9.2756    1.1167    3.2357 H         1     PTX    0.0000
    102 H           7.2969    1.5727    1.9268 H         1     PTX    0.0000
    103 H           6.5569    0.3819    2.9481 H         1     PTX    0.0000
    104 H           6.4837    0.6857   -0.0387 H         1     PTX    0.0000
    105 H           2.7335    0.4921   -0.0639 H         1     PTX    0.0000
    106 H           0.9229    4.6741   -0.9730 H         1     PTX    0.0000
    107 H           0.1659    3.9322    0.4769 H         1     PTX    0.0000
    108 H           1.7625    4.7441    0.6015 H         1     PTX    0.0000
    109 H           2.9761    3.5588   -2.0420 H         1     PTX    0.0000
    110 H           3.6726    2.0602   -1.3632 H         1     PTX    0.0000
    111 H           3.8421    3.6163   -0.4940 H         1     PTX    0.0000
    112 H           0.8286    3.1448   -2.5667 H         1     PTX    0.0000
    113 H          -1.4561    2.6608   -1.7291 H         1     PTX    0.0000
    114 H          -1.2214    0.9057   -2.0227 H         1     PTX    0.0000
    115 H          -2.5049    1.9435   -3.8959 H         1     PTX    0.0000
    116 H          -1.2007    3.1487   -4.1621 H         1     PTX    0.0000
    117 H          -0.9479    0.0800   -4.4564 H         1     PTX    0.0000
    118 H          -2.2284    1.1474   -6.3162 H         1     PTX    0.0000
    119 H          -0.9153    2.3477   -6.5604 H         1     PTX    0.0000
    120 H          -0.7098    0.4929   -8.2187 H         1     PTX    0.0000
    121 H          -0.6855   -0.7246   -6.8990 H         1     PTX    0.0000
    122 H           1.6398   -0.2675   -7.6869 H         1     PTX    0.0000
    123 H           1.4256    1.4909   -7.3938 H         1     PTX    0.0000
    124 H           2.6775    0.4477   -5.5053 H         1     PTX    0.0000
    125 H           1.3632   -0.7493   -5.2521 H         1     PTX    0.0000
    126 H           1.1169    2.3207   -4.9674 H         1     PTX    0.0000
    127 H           1.0684    0.0656   -2.8515 H         1     PTX    0.0000
    128 H           2.3944    1.2365   -3.1223 H         1     PTX    0.0000
    129 H           2.1190    0.4415    2.9232 H         1     PTX    0.0000
    130 H           0.3425    0.7714    0.8073 H         1     PTX    0.0000
    131 H           0.8095   -0.6702    4.1096 H         1     PTX    0.0000
    132 H           0.9408   -2.4159    5.7384 H         1     PTX    0.0000
    133 H          -0.1655   -4.5622    5.3557 H         1     PTX    0.0000
    134 H          -1.4163   -4.9231    3.2867 H         1     PTX    0.0000
    135 H          -1.5353   -3.2120    1.6133 H         1     PTX    0.0000
    136 H           1.8684   -1.6938   -0.1938 H         1     PTX    0.0000
    137 H           2.7276   -3.9523   -0.3576 H         1     PTX    0.0000
    138 H           3.8723   -4.9770    1.5470 H         1     PTX    0.0000
    139 H           4.1556   -3.7045    3.6165 H         1     PTX    0.0000
    140 H           3.3345   -1.4289    3.7740 H         1     PTX    0.0000
    141 H           6.7106   -1.4429   -1.9850 H         1     PTX    0.0000
    142 H           5.7536   -2.7576   -1.1497 H         1     PTX    0.0000
    143 H           5.1348   -1.1262   -1.2381 H         1     PTX    0.0000
    144 H           9.2904   -2.3178    4.0198 H         1     PTX    0.0000
    145 H           8.9044   -3.7117    2.9807 H         1     PTX    0.0000
    146 H          10.2264   -2.6374    2.5870 H         1     PTX    0.0000
    147 H           6.9972   -1.7256    4.1251 H         1     PTX    0.0000
    148 H           5.9305   -1.6988    2.6967 H         1     PTX    0.0000
    149 H           6.7070   -3.1924    3.1309 H         1     PTX    0.0000
@<TRIPOS>BOND
     1     1     2     1
     2     1    77     1
     3     1    78     1
     4     1    79     1
     5     2     3     2
     6     2     4     1
     7     4     5     1
     8     5     6     1
     9     5    73     1
    10     5    80     1
    11     6     7     2
    12     6     8     1
    13     8     9     1
    14     8    10     1
    15     8    21     1
    16     9    81     1
    17     9    82     1
    18     9    83     1
    19    10    11     1
    20    10    12     1
    21    10    84     1
    22    11    85     1
    23    12    13     1
    24    12    86     1
    25    12    87     1
    26    13    14     1
    27    13    16     1
    28    13    88     1
    29    14    15     1
    30    15    16     1
    31    15    89     1
    32    15    90     1
    33    16    17     1
    34    16    21     1
    35    17    18     1
    36    18    19     1
    37    18    20     2
    38    19    91     1
    39    19    92     1
    40    19    93     1
    41    21    22     1
    42    21    94     1
    43    22    23     1
    44    22    32     1
    45    22    95     1
    46    23    24     1
    47    24    25     2
    48    24    26     1
    49    26    27     1
    50    26    31     2
    51    27    28     2
    52    27    96     1
    53    28    29     1
    54    28    97     1
    55    29    30     2
    56    29    98     1
    57    30    31     1
    58    30    99     1
    59    31   100     1
    60    32    33     1
    61    32    34     1
    62    32    74     1
    63    33   101     1
    64    34    35     1
    65    34   102     1
    66    34   103     1
    67    35    36     1
    68    35    71     1
    69    35   104     1
    70    36    37     1
    71    37    38     2
    72    37    39     1
    73    39    40     1
    74    39    55     1
    75    39   105     1
    76    40    41     1
    77    41    42     1
    78    41    43     1
    79    41    44     1
    80    42   106     1
    81    42   107     1
    82    42   108     1
    83    43   109     1
    84    43   110     1
    85    43   111     1
    86    44    45     1
    87    45    46     1
    88    45    54     1
    89    45   112     1
    90    46    47     1
    91    46   113     1
    92    46   114     1
    93    47    48     1
    94    47   115     1
    95    47   116     1
    96    48    49     1
    97    48    53     1
    98    48   117     1
    99    49    50     1
   100    49   118     1
   101    49   119     1
   102    50    51     1
   103    50   120     1
   104    50   121     1
   105    51    52     1
   106    51   122     1
   107    51   123     1
   108    52    53     1
   109    52   124     1
   110    52   125     1
   111    53    54     1
   112    53   126     1
   113    54   127     1
   114    54   128     1
   115    55    56     1
   116    55    65     1
   117    55   129     1
   118    56    57     1
   119    56   130     1
   120    57    58     2
   121    57    59     1
   122    59    60     1
   123    59    64     2
   124    60    61     2
   125    60   131     1
   126    61    62     1
   127    61   132     1
   128    62    63     2
   129    62   133     1
   130    63    64     1
   131    63   134     1
   132    64   135     1
   133    65    66     1
   134    65    70     2
   135    66    67     2
   136    66   136     1
   137    67    68     1
   138    67   137     1
   139    68    69     2
   140    68   138     1
   141    69    70     1
   142    69   139     1
   143    70   140     1
   144    71    72     1
   145    71    73     2
   146    72   141     1
   147    72   142     1
   148    72   143     1
   149    73    74     1
   150    74    75     1
   151    74    76     1
   152    75   144     1
   153    75   145     1
   154    75   146     1
   155    76   147     1
   156    76   148     1
   157    76   149     1
