@<TRIPOS>MOLECULE
xtbopt.pdb
 189 195 0 0 0
SMALL
GASTEIGER

@<TRIPOS>ATOM
      1  C         -5.1210    2.5950    1.8150 C.3     1  PTL1        0.0509
      2  C         -5.1870    1.0800    1.9850 C.3     1  PTL1       -0.0294
      3  C         -4.2310    0.3460    1.0490 C.3     1  PTL1       -0.0510
      4  C         -4.2500   -1.1590    1.3050 C.3     1  PTL1       -0.0530
      5  C         -3.2270   -1.9120    0.4580 C.3     1  PTL1       -0.0531
      6  C         -3.2560   -3.4110    0.7470 C.3     1  PTL1       -0.0531
      7  C         -2.2120   -4.1860   -0.0540 C.3     1  PTL1       -0.0531
      8  C         -2.2540   -5.6780    0.2660 C.3     1  PTL1       -0.0531
      9  C         -1.1990   -6.4720   -0.5020 C.3     1  PTL1       -0.0531
     10  C         -1.2490   -7.9590   -0.1590 C.3     1  PTL1       -0.0531
     11  C         -0.1860   -8.7630   -0.9030 C.3     1  PTL1       -0.0531
     12  C         -0.2400  -10.2480   -0.5490 C.3     1  PTL1       -0.0531
     13  C          0.8340  -11.0550   -1.2740 C.3     1  PTL1       -0.0531
     14  C          0.7740  -12.5390   -0.9200 C.3     1  PTL1       -0.0531
     15  C          1.8570  -13.3460   -1.6310 C.3     1  PTL1       -0.0531
     16  C          1.7870  -14.8320   -1.2850 C.3     1  PTL1       -0.0531
     17  C          2.8780  -15.6380   -1.9860 C.3     1  PTL1       -0.0531
     18  C          2.7940  -17.1270   -1.6570 C.3     1  PTL1       -0.0531
     19  C          3.8880  -17.9330   -2.3520 C.3     1  PTL1       -0.0531
     20  C          3.7900  -19.4250   -2.0400 C.3     1  PTL1       -0.0533
     21  C          4.8860  -20.2320   -2.7330 C.3     1  PTL1       -0.0559
     22  C          4.7760  -21.7210   -2.4270 C.3     1  PTL1       -0.0653
     23  O         -6.0010    3.1590    2.7720 O.3     1  PTL1       -0.3491
     24  H         -5.4260    2.8770    0.7980 H       1  PTL1        0.0561
     25  H         -4.0910    2.9410    1.9840 H       1  PTL1        0.0561
     26  H         -6.2130    0.7590    1.8030 H       1  PTL1        0.0287
     27  H         -4.9470    0.8520    3.0250 H       1  PTL1        0.0287
     28  H         -4.5120    0.5490    0.0130 H       1  PTL1        0.0266
     29  H         -3.2170    0.7250    1.1960 H       1  PTL1        0.0266
     30  H         -5.2490   -1.5460    1.0970 H       1  PTL1        0.0265
     31  H         -4.0420   -1.3440    2.3620 H       1  PTL1        0.0265
     32  H         -3.4340   -1.7400   -0.6010 H       1  PTL1        0.0265
     33  H         -2.2280   -1.5240    0.6690 H       1  PTL1        0.0265
     34  H         -4.2500   -3.8020    0.5160 H       1  PTL1        0.0265
     35  H         -3.0800   -3.5730    1.8130 H       1  PTL1        0.0265
     36  H         -2.3890   -4.0380   -1.1220 H       1  PTL1        0.0265
     37  H         -1.2180   -3.7950    0.1750 H       1  PTL1        0.0265
     38  H         -3.2450   -6.0710    0.0250 H       1  PTL1        0.0265
     39  H         -2.0970   -5.8190    1.3380 H       1  PTL1        0.0265
     40  H         -1.3560   -6.3420   -1.5750 H       1  PTL1        0.0265
     41  H         -0.2080   -6.0800   -0.2640 H       1  PTL1        0.0265
     42  H         -2.2370   -8.3530   -0.4060 H       1  PTL1        0.0265
     43  H         -1.1050   -8.0840    0.9170 H       1  PTL1        0.0265
     44  H         -0.3280   -8.6440   -1.9800 H       1  PTL1        0.0265
     45  H          0.8030   -8.3700   -0.6570 H       1  PTL1        0.0265
     46  H         -1.2250  -10.6440   -0.8060 H       1  PTL1        0.0265
     47  H         -0.1110  -10.3650    0.5300 H       1  PTL1        0.0265
     48  H          0.7080  -10.9360   -2.3530 H       1  PTL1        0.0265
     49  H          1.8190  -10.6610   -1.0130 H       1  PTL1        0.0265
     50  H         -0.2080  -12.9350   -1.1910 H       1  PTL1        0.0265
     51  H          0.8880  -12.6560    0.1610 H       1  PTL1        0.0265
     52  H          1.7500  -13.2210   -2.7110 H       1  PTL1        0.0265
     53  H          2.8390  -12.9560   -1.3510 H       1  PTL1        0.0265
     54  H          0.8080  -15.2220   -1.5740 H       1  PTL1        0.0265
     55  H          1.8850  -14.9560   -0.2040 H       1  PTL1        0.0265
     56  H          2.7890  -15.5030   -3.0670 H       1  PTL1        0.0265
     57  H          3.8570  -15.2570   -1.6870 H       1  PTL1        0.0265
     58  H          1.8160  -17.5080   -1.9620 H       1  PTL1        0.0265
     59  H          2.8770  -17.2630   -0.5760 H       1  PTL1        0.0265
     60  H          3.8130  -17.7860   -3.4330 H       1  PTL1        0.0265
     61  H          4.8660  -17.5610   -2.0370 H       1  PTL1        0.0265
     62  H          3.8630  -19.5730   -0.9600 H       1  PTL1        0.0265
     63  H          2.8130  -19.7960   -2.3590 H       1  PTL1        0.0265
     64  H          5.8630  -19.8660   -2.4090 H       1  PTL1        0.0263
     65  H          4.8180  -20.0780   -3.8130 H       1  PTL1        0.0263
     66  H          3.8170  -22.1080   -2.7630 H       1  PTL1        0.0230
     67  H          4.8590  -21.8970   -1.3570 H       1  PTL1        0.0230
     68  H          5.5650  -22.2750   -2.9290 H       1  PTL1        0.0230
     69  N         -7.2800    7.8860    1.4120 N.am    2  PTX2       -0.3015
     70  C         -2.9460    6.4940   -2.2360 C.3     2  PTX2        0.0251
     71  C         -3.6610    6.0370   -0.9830 C.3     2  PTX2        0.1125
     72  C         -2.6330    5.1810   -0.2300 C.3     2  PTX2        0.0178
     73  C         -1.3870    5.9870    0.1680 C.3     2  PTX2        0.1123
     74  C         -1.2630    7.3190   -0.6490 C.3     2  PTX2        0.0083
     75  C         -1.6980    6.9790   -2.0620 C.3     2  PTX2        0.0426
     76  C         -5.8410    5.0130   -0.5640 C.2     2  PTX2        0.3389
     77  C         -6.0700    5.8430    0.7050 C.3     2  PTX2        0.1803
     78  C         -7.0660    6.9740    0.3010 C.3     2  PTX2        0.0853
     79  C         -6.6750    7.6680   -0.9850 C.ar    2  PTX2       -0.0242
     80  C         -6.3440    8.4000    2.2340 C.2     2  PTX2        0.2446
     81  C         -3.6380    6.2390   -3.5280 C.3     2  PTX2       -0.0549
     82  C         -5.7880    8.7370   -1.0020 C.ar    2  PTX2       -0.0567
     83  C         -5.4580    9.3540   -2.1980 C.ar    2  PTX2       -0.0614
     84  C         -6.0080    8.9110   -3.3870 C.ar    2  PTX2       -0.0617
     85  C         -6.8940    7.8450   -3.3770 C.ar    2  PTX2       -0.0614
     86  C         -7.2290    7.2310   -2.1840 C.ar    2  PTX2       -0.0567
     87  C          0.1450    7.9030   -0.4990 C.3     2  PTX2       -0.0564
     88  C         -2.2190    8.4090   -0.0810 C.3     2  PTX2       -0.0564
     89  C         -0.7500    6.9610   -3.2430 C.3     2  PTX2        0.1685
     90  C         -0.5490    5.4390   -3.3560 C.2     2  PTX2        0.1829
     91  C         -0.0940    5.0940    0.0900 C.3     2  PTX2        0.1401
     92  C          0.4950    4.5740   -2.6160 C.3     2  PTX2        0.0659
     93  C          0.3190    4.1990   -1.1120 C.3     2  PTX2        0.0580
     94  C          2.9650    4.0740   -2.8490 C.3     2  PTX2        0.0043
     95  C          1.9010    5.1780   -2.8840 C.3     2  PTX2        0.0704
     96  C          2.8380    3.2200   -1.5900 C.3     2  PTX2        0.1035
     97  C          1.6120    3.4390   -0.6520 C.3     2  PTX2        0.1696
     98  C          2.6560    4.1170    0.2560 C.3     2  PTX2        0.0909
     99  C          0.3770    3.2090   -3.3420 C.3     2  PTX2       -0.0498
    100  C          0.1200    4.3500    2.3540 C.2     2  PTX2        0.3395
    101  C          0.4400    9.0340   -3.4460 C.2     2  PTX2        0.3046
    102  C         -0.3800    3.3680    3.3360 C.ar    2  PTX2        0.0590
    103  C          0.0830    3.4370    4.6480 C.ar    2  PTX2       -0.0478
    104  C         -0.3580    2.5230    5.5860 C.ar    2  PTX2       -0.0610
    105  C         -1.2620    1.5370    5.2220 C.ar    2  PTX2       -0.0617
    106  C         -1.7280    1.4670    3.9180 C.ar    2  PTX2       -0.0610
    107  C         -1.2930    2.3790    2.9770 C.ar    2  PTX2       -0.0478
    108  C          1.2480    1.5430    0.9330 C.2     2  PTX2        0.3046
    109  C          0.6800    0.1520    0.8580 C.3     2  PTX2        0.0333
    110  C         -6.8840    9.1690    3.3900 C.ar    2  PTX2        0.0367
    111  C         -8.0610    8.8070    4.0400 C.ar    2  PTX2       -0.0496
    112  C         -8.4990    9.5350    5.1320 C.ar    2  PTX2       -0.0610
    113  C         -7.7740   10.6270    5.5800 C.ar    2  PTX2       -0.0617
    114  C         -6.5960   10.9840    4.9450 C.ar    2  PTX2       -0.0610
    115  C         -6.1480   10.2530    3.8610 C.ar    2  PTX2       -0.0496
    116  C         -0.8730    9.7240   -3.6700 C.3     2  PTX2        0.0333
    117  C         -6.1250    4.5610    2.8650 C.3     2  PTX2        0.1656
    118  C         -4.8070    5.2290    3.2690 C.3     2  PTX2       -0.0108
    119  C         -7.1640    4.7750    3.9770 C.3     2  PTX2       -0.0108
    120  O         -4.7710    5.2070   -1.3300 O.3     2  PTX2       -0.4588
    121  O         -6.6550    4.1980   -0.9300 O.2     2  PTX2       -0.2478
    122  O         -6.7470    5.0810    1.6840 O.3     2  PTX2       -0.3326
    123  O          0.4400    7.7100   -3.2170 O.3     2  PTX2       -0.4532
    124  O         -1.2800    4.9030   -4.1600 O.2     2  PTX2       -0.2928
    125  O          3.7300    3.6480   -0.5540 O.3     2  PTX2       -0.3684
    126  O          2.1880    6.1550   -1.9170 O.3     2  PTX2       -0.3907
    127  O          1.1580    2.1290   -0.2590 O.3     2  PTX2       -0.4528
    128  O         -0.3180    4.1030    1.1150 O.3     2  PTX2       -0.4545
    129  O          0.8580    5.2770    2.6300 O.2     2  PTX2       -0.2449
    130  O         -1.5780    6.2800    1.5380 O.3     2  PTX2       -0.3842
    131  O          1.7140    2.0270    1.9390 O.2     2  PTX2       -0.2511
    132  O         -5.1350    8.2760    2.0560 O.2     2  PTX2       -0.2702
    133  O          1.5090    9.5990   -3.4680 O.2     2  PTX2       -0.2511
    134  H         -0.4580    3.4240   -1.1170 H       2  PTX2        0.0388
    135  H         -4.0030    6.8750   -0.3810 H       2  PTX2        0.0741
    136  H         -2.3720    4.3470   -0.8810 H       2  PTX2        0.0330
    137  H         -3.0700    4.7710    0.6810 H       2  PTX2        0.0330
    138  H         -5.1510    6.2730    1.0990 H       2  PTX2        0.0737
    139  H         -8.0160    6.4510    0.1380 H       2  PTX2        0.0580
    140  H         -8.2430    8.0770    1.6370 H       2  PTX2        0.1497
    141  H         -4.7130    6.2940   -3.3790 H       2  PTX2        0.0237
    142  H         -3.4020    5.2390   -3.8950 H       2  PTX2        0.0237
    143  H         -3.3410    6.9520   -4.2900 H       2  PTX2        0.0237
    144  H         -5.3570    9.0920   -0.0800 H       2  PTX2        0.0621
    145  H         -4.7750   10.1900   -2.1940 H       2  PTX2        0.0618
    146  H         -5.7530    9.3930   -4.3170 H       2  PTX2        0.0618
    147  H         -7.3310    7.4940   -4.2990 H       2  PTX2        0.0618
    148  H         -7.9200    6.4000   -2.1790 H       2  PTX2        0.0621
    149  H          0.1870    8.9020   -0.9240 H       2  PTX2        0.0236
    150  H          0.9030    7.2990   -0.9780 H       2  PTX2        0.0236
    151  H          0.3880    7.9930    0.5600 H       2  PTX2        0.0236
    152  H         -1.6450    9.2780    0.2280 H       2  PTX2        0.0236
    153  H         -2.9350    8.7340   -0.8310 H       2  PTX2        0.0236
    154  H         -2.7630    8.0640    0.7950 H       2  PTX2        0.0236
    155  H         -1.3110    7.2180   -4.1520 H       2  PTX2        0.0821
    156  H          0.7390    5.7180    0.4150 H       2  PTX2        0.0768
    157  H          2.9050    3.4570   -3.7410 H       2  PTX2        0.0317
    158  H          3.9540    4.5360   -2.8200 H       2  PTX2        0.0317
    159  H          1.8920    5.6300   -3.8860 H       2  PTX2        0.0604
    160  H          3.0080    2.1600   -1.8100 H       2  PTX2        0.0638
    161  H          2.6140    5.2070    0.2220 H       2  PTX2        0.0601
    162  H          2.7270    3.7760    1.2860 H       2  PTX2        0.0601
    163  H          0.9700    2.4420   -2.8630 H       2  PTX2        0.0240
    164  H         -0.6620    2.8890   -3.3270 H       2  PTX2        0.0240
    165  H          0.6720    3.3080   -4.3830 H       2  PTX2        0.0240
    166  H          2.9070    6.7160   -2.2330 H       2  PTX2        0.2098
    167  H          0.7930    4.2080    4.9050 H       2  PTX2        0.0626
    168  H          0.0070    2.5760    6.6000 H       2  PTX2        0.0618
    169  H         -1.6020    0.8210    5.9540 H       2  PTX2        0.0618
    170  H         -2.4310    0.6980    3.6360 H       2  PTX2        0.0618
    171  H         -1.6440    2.3340    1.9570 H       2  PTX2        0.0626
    172  H         -0.8800    6.8700    1.8540 H       2  PTX2        0.2103
    173  H          0.0850    0.0330   -0.0410 H       2  PTX2        0.0342
    174  H          1.5060   -0.5560    0.8450 H       2  PTX2        0.0342
    175  H          0.0890   -0.0340    1.7500 H       2  PTX2        0.0342
    176  H         -8.6210    7.9400    3.7200 H       2  PTX2        0.0625
    177  H         -9.4080    9.2450    5.6360 H       2  PTX2        0.0618
    178  H         -8.1230   11.1940    6.4290 H       2  PTX2        0.0618
    179  H         -6.0230   11.8280    5.2960 H       2  PTX2        0.0618
    180  H         -5.2250   10.5090    3.3610 H       2  PTX2        0.0625
    181  H         -1.2610    9.4570   -4.6520 H       2  PTX2        0.0342
    182  H         -1.6000    9.4300   -2.9160 H       2  PTX2        0.0342
    183  H         -0.7100   10.7970   -3.6410 H       2  PTX2        0.0342
    184  H         -4.0020    5.0520    2.5610 H       2  PTX2        0.0281
    185  H         -4.5080    4.8120    4.2260 H       2  PTX2        0.0281
    186  H         -4.9360    6.3020    3.3790 H       2  PTX2        0.0281
    187  H         -8.1250    4.4140    3.6240 H       2  PTX2        0.0281
    188  H         -7.2310    5.8310    4.2190 H       2  PTX2        0.0281
    189  H         -6.8690    4.2100    4.8540 H       2  PTX2        0.0281
@<TRIPOS>BOND
     1   181   116    1
     2   165    99    1
     3   146    84    1
     4   147    85    1
     5   143    81    1
     6   124    90    2
     7   155    89    1
     8   142    81    1
     9   159    95    1
    10    65    21    1
    11   157    94    1
    12   116   183    1
    13   116   101    1
    14   116   182    1
    15    81   141    1
    16    81    70    1
    17   133   101    2
    18   101   123    1
    19    60    19    1
    20    84    85   ar
    21    84    83   ar
    22    85    86   ar
    23    90    89    1
    24    90    92    1
    25    99   164    1
    26    99   163    1
    27    99    92    1
    28    89   123    1
    29    89    75    1
    30    56    17    1
    31    68    22    1
    32    95    94    1
    33    95    92    1
    34    95   126    1
    35    94   158    1
    36    94    96    1
    37    66    22    1
    38    21    22    1
    39    21    64    1
    40    21    20    1
    41    52    15    1
    42    92    93    1
    43    22    67    1
    44    63    20    1
    45    48    13    1
    46    19    20    1
    47    19    61    1
    48    19    18    1
    49    70    75    1
    50    70    71    1
    51   166   126    1
    52    83   145    1
    53    83    82   ar
    54    86   148    1
    55    86    79   ar
    56    75    74    1
    57    20    62    1
    58    17    57    1
    59    17    18    1
    60    17    16    1
    61    44    11    1
    62    58    18    1
    63   160    96    1
    64    18    59    1
    65    15    53    1
    66    15    16    1
    67    15    14    1
    68    96    97    1
    69    96   125    1
    70    40     9    1
    71    54    16    1
    72   120    71    1
    73   120    76    1
    74    16    55    1
    75    13    49    1
    76    13    14    1
    77    13    12    1
    78    50    14    1
    79    36     7    1
    80   134    93    1
    81    93    97    1
    82    93    91    1
    83    82    79   ar
    84    82   144    1
    85    79    78    1
    86    71   135    1
    87    71    72    1
    88   150    87    1
    89   121    76    2
    90   149    87    1
    91    14    51    1
    92    11    45    1
    93    11    12    1
    94    11    10    1
    95   136    72    1
    96   153    88    1
    97    46    12    1
    98    97   127    1
    99    97    98    1
   100    74    87    1
   101    74    88    1
   102    74    73    1
   103    32     5    1
   104    76    77    1
   105   125    98    1
   106    12    47    1
   107     9    41    1
   108     9    10    1
   109     9     8    1
   110    87   151    1
   111    42    10    1
   112   127   108    1
   113    72    73    1
   114    72   137    1
   115    10    43    1
   116    88   152    1
   117    88   154    1
   118     7    37    1
   119     7     8    1
   120     7     6    1
   121   173   109    1
   122    28     3    1
   123    38     8    1
   124    91    73    1
   125    91   156    1
   126    91   128    1
   127   139    78    1
   128    73   130    1
   129   161    98    1
   130    98   162    1
   131     8    39    1
   132    78    77    1
   133    78    69    1
   134     5    33    1
   135     5     6    1
   136     5     4    1
   137    34     6    1
   138    77   138    1
   139    77   122    1
   140     6    35    1
   141    24     1    1
   142   174   109    1
   143   109   108    1
   144   109   175    1
   145   108   131    2
   146     3    29    1
   147     3     4    1
   148     3     2    1
   149    30     4    1
   150   128   100    1
   151     4    31    1
   152    69   140    1
   153    69    80   am
   154   130   172    1
   155   122   117    1
   156    26     2    1
   157     1    25    1
   158     1     2    1
   159     1    23    1
   160   171   107    1
   161     2    27    1
   162   132    80    2
   163    80   110    1
   164   100   129    2
   165   100   102    1
   166   184   118    1
   167    23   117    1
   168   117   118    1
   169   117   119    1
   170   107   102   ar
   171   107   106   ar
   172   118   186    1
   173   118   185    1
   174   102   103   ar
   175   180   115    1
   176   110   115   ar
   177   110   111   ar
   178   187   119    1
   179   170   106    1
   180   176   111    1
   181   115   114   ar
   182   106   105   ar
   183   119   188    1
   184   119   189    1
   185   111   112   ar
   186   103   167    1
   187   103   104   ar
   188   114   179    1
   189   114   113   ar
   190   112   113   ar
   191   112   177    1
   192   105   104   ar
   193   105   169    1
   194   113   178    1
   195   104   168    1
