# created with PyMOL 3.1.1
@<TRIPOS>MOLECULE
P2C22
189 195 2               
SMALL
USER_CHARGES
@<TRIPOS>ATOM
1	   C	-4.958	2.339	1.421	C.3	1	PTL1	0.000	
2	   C	-5.022	0.841	1.724	C.3	1	PTL1	0.000	
3	   C	-3.912	0.052	1.012	C.3	1	PTL1	0.000	
4	   C	-4.022	-1.456	1.291	C.3	1	PTL1	0.000	
5	   C	-2.891	-2.254	0.624	C.3	1	PTL1	0.000	
6	   C	-3.035	-3.767	0.856	C.3	1	PTL1	0.000	
7	   C	-1.890	-4.557	0.202	C.3	1	PTL1	0.000	
8	   C	-2.032	-6.071	0.432	C.3	1	PTL1	0.000	
9	   C	-0.889	-6.862	-0.225	C.3	1	PTL1	0.000	
10	   C	-1.033	-8.376	0.002	C.3	1	PTL1	0.000	
11	   C	0.107	-9.169	-0.657	C.3	1	PTL1	0.000	
12	   C	-0.040	-10.682	-0.432	C.3	1	PTL1	0.000	
13	   C	1.098	-11.476	-1.094	C.3	1	PTL1	0.000	
14	   C	0.950	-12.990	-0.870	C.3	1	PTL1	0.000	
15	   C	2.086	-13.784	-1.534	C.3	1	PTL1	0.000	
16	   C	1.936	-15.298	-1.311	C.3	1	PTL1	0.000	
17	   C	3.071	-16.093	-1.977	C.3	1	PTL1	0.000	
18	   C	2.920	-17.607	-1.754	C.3	1	PTL1	0.000	
19	   C	4.054	-18.402	-2.421	C.3	1	PTL1	0.000	
20	   C	3.902	-19.916	-2.199	C.3	1	PTL1	0.000	
21	   C	5.036	-20.712	-2.865	C.3	1	PTL1	0.000	
22	   C	4.881	-22.222	-2.641	C.3	1	PTL1	0.000	
23	   O	-5.945	2.983	2.190	O.3	1	PTL1	0.000	
24	   H	-5.141	2.498	0.335	 H	1	PTL1	0.000	
25	   H	-3.954	2.728	1.684	 H	1	PTL1	0.000	
26	   H	-6.019	0.447	1.412	 H	1	PTL1	0.000	
27	   H	-4.935	0.682	2.826	 H	1	PTL1	0.000	
28	   H	-3.973	0.233	-0.088	 H	1	PTL1	0.000	
29	   H	-2.916	0.421	1.354	 H	1	PTL1	0.000	
30	   H	-5.006	-1.827	0.918	 H	1	PTL1	0.000	
31	   H	-3.994	-1.632	2.393	 H	1	PTL1	0.000	
32	   H	-2.885	-2.046	-0.472	 H	1	PTL1	0.000	
33	   H	-1.911	-1.916	1.036	 H	1	PTL1	0.000	
34	   H	-4.010	-4.114	0.440	 H	1	PTL1	0.000	
35	   H	-3.047	-3.973	1.953	 H	1	PTL1	0.000	
36	   H	-1.876	-4.349	-0.894	 H	1	PTL1	0.000	
37	   H	-0.915	-4.210	0.619	 H	1	PTL1	0.000	
38	   H	-3.008	-6.417	0.016	 H	1	PTL1	0.000	
39	   H	-2.043	-6.279	1.528	 H	1	PTL1	0.000	
40	   H	-0.877	-6.653	-1.321	 H	1	PTL1	0.000	
41	   H	0.087	-6.517	0.192	 H	1	PTL1	0.000	
42	   H	-2.010	-8.720	-0.413	 H	1	PTL1	0.000	
43	   H	-1.043	-8.586	1.098	 H	1	PTL1	0.000	
44	   H	0.117	-8.958	-1.753	 H	1	PTL1	0.000	
45	   H	1.084	-8.826	-0.242	 H	1	PTL1	0.000	
46	   H	-1.018	-11.024	-0.846	 H	1	PTL1	0.000	
47	   H	-0.049	-10.894	0.664	 H	1	PTL1	0.000	
48	   H	1.107	-11.264	-2.190	 H	1	PTL1	0.000	
49	   H	2.077	-11.135	-0.680	 H	1	PTL1	0.000	
50	   H	-0.030	-13.330	-1.283	 H	1	PTL1	0.000	
51	   H	0.942	-13.202	0.226	 H	1	PTL1	0.000	
52	   H	2.094	-13.571	-2.630	 H	1	PTL1	0.000	
53	   H	3.065	-13.445	-1.121	 H	1	PTL1	0.000	
54	   H	0.956	-15.637	-1.724	 H	1	PTL1	0.000	
55	   H	1.929	-15.511	-0.215	 H	1	PTL1	0.000	
56	   H	3.078	-15.880	-3.072	 H	1	PTL1	0.000	
57	   H	4.051	-15.755	-1.564	 H	1	PTL1	0.000	
58	   H	1.939	-17.945	-2.167	 H	1	PTL1	0.000	
59	   H	2.913	-17.820	-0.659	 H	1	PTL1	0.000	
60	   H	4.061	-18.189	-3.516	 H	1	PTL1	0.000	
61	   H	5.034	-18.065	-2.008	 H	1	PTL1	0.000	
62	   H	3.895	-20.131	-1.104	 H	1	PTL1	0.000	
63	   H	2.922	-20.254	-2.611	 H	1	PTL1	0.000	
64	   H	6.019	-20.379	-2.454	 H	1	PTL1	0.000	
65	   H	5.046	-20.503	-3.961	 H	1	PTL1	0.000	
66	   H	3.921	-22.595	-3.066	 H	1	PTL1	0.000	
67	   H	4.896	-22.471	-1.556	 H	1	PTL1	0.000	
68	   H	5.709	-22.786	-3.130	 H	1	PTL1	0.000	
69	   N	-7.187	7.686	1.714	N.pl3	2	PTX1	0.000	
70	   C	-2.721	7.389	-2.382	C.2	2	PTX1	0.000	
71	   C	-3.591	6.684	-1.343	C.3	2	PTX1	0.000	
72	   C	-2.659	5.639	-0.720	C.3	2	PTX1	0.000	
73	   C	-1.425	6.258	-0.030	C.3	2	PTX1	0.000	
74	   C	-1.024	7.640	-0.617	C.3	2	PTX1	0.000	
75	   C	-1.413	7.597	-2.090	C.2	2	PTX1	0.000	
76	   C	-5.866	5.726	-1.310	C.2	2	PTX1	0.000	
77	   C	-6.015	5.960	0.212	C.3	2	PTX1	0.000	
78	   C	-7.218	6.904	0.470	C.3	2	PTX1	0.000	
79	   C	-7.656	7.831	-0.657	C.2	2	PTX1	0.000	
80	   C	-6.166	8.517	2.088	C.2	2	PTX1	0.000	
81	   C	-3.343	7.545	-3.752	C.3	2	PTX1	0.000	
82	   C	-6.793	8.597	-1.349	C.2	2	PTX1	0.000	
83	   C	-7.201	9.403	-2.341	C.2	2	PTX1	0.000	
84	   C	-8.501	9.467	-2.662	C.2	2	PTX1	0.000	
85	   C	-9.382	8.721	-1.980	C.2	2	PTX1	0.000	
86	   C	-8.959	7.917	-0.992	C.2	2	PTX1	0.000	
87	   C	0.405	8.106	-0.234	C.3	2	PTX1	0.000	
88	   C	-1.795	8.876	-0.027	C.3	2	PTX1	0.000	
89	   C	-0.405	7.211	-3.158	C.3	2	PTX1	0.000	
90	   C	-0.451	5.661	-3.243	C.2	2	PTX1	0.000	
91	   C	-0.273	5.215	0.108	C.3	2	PTX1	0.000	
92	   C	0.487	4.640	-2.540	C.3	2	PTX1	0.000	
93	   C	0.220	4.263	-1.039	C.3	2	PTX1	0.000	
94	   C	2.918	3.841	-2.619	C.3	2	PTX1	0.000	
95	   C	1.963	5.013	-2.793	C.3	2	PTX1	0.000	
96	   C	2.607	3.009	-1.380	C.3	2	PTX1	0.000	
97	   C	1.346	3.304	-0.511	C.3	2	PTX1	0.000	
98	   C	2.439	3.885	0.416	C.3	2	PTX1	0.000	
99	   C	0.235	3.305	-3.336	C.3	2	PTX1	0.000	
100	   C	-0.509	4.754	2.491	C.2	2	PTX1	0.000	
101	   C	1.272	8.988	-3.324	C.2	2	PTX1	0.000	
102	   C	-1.057	4.010	3.501	C.2	2	PTX1	0.000	
103	   C	-1.002	4.405	4.788	C.2	2	PTX1	0.000	
104	   C	-1.553	3.662	5.761	C.2	2	PTX1	0.000	
105	   C	-2.168	2.508	5.467	C.2	2	PTX1	0.000	
106	   C	-2.227	2.101	4.191	C.2	2	PTX1	0.000	
107	   C	-1.679	2.849	3.221	C.2	2	PTX1	0.000	
108	   C	0.713	1.511	1.056	C.2	2	PTX1	0.000	
109	   C	0.270	0.065	0.934	C.3	2	PTX1	0.000	
110	   C	-6.313	9.149	3.291	C.2	2	PTX1	0.000	
111	   C	-7.396	8.979	4.076	C.2	2	PTX1	0.000	
112	   C	-7.508	9.612	5.256	C.2	2	PTX1	0.000	
113	   C	-6.536	10.431	5.681	C.2	2	PTX1	0.000	
114	   C	-5.451	10.611	4.915	C.2	2	PTX1	0.000	
115	   C	-5.344	9.976	3.737	C.2	2	PTX1	0.000	
116	   C	0.160	9.933	-3.740	C.3	2	PTX1	0.000	
117	   C	-5.995	4.398	2.117	C.3	2	PTX1	0.000	
118	   C	-4.731	5.011	2.708	C.3	2	PTX1	0.000	
119	   C	-7.204	4.773	2.973	C.3	2	PTX1	0.000	
120	   O	-4.695	6.045	-1.939	O.3	2	PTX1	0.000	
121	   O	-6.802	5.256	-1.927	O.co2	2	PTX1	0.000	
122	   O	-6.228	4.666	0.752	O.3	2	PTX1	0.000	
123	   O	0.900	7.712	-3.027	O.3	2	PTX1	0.000	
124	   O	-1.328	5.256	-3.981	O.2	2	PTX1	0.000	
125	   O	3.490	3.318	-0.330	O.3	2	PTX1	0.000	
126	   O	2.378	6.011	-1.901	O.3	2	PTX1	0.000	
127	   O	0.814	2.049	-0.188	O.3	2	PTX1	0.000	
128	   O	-0.609	4.348	1.173	O.3	2	PTX1	0.000	
129	   O	0.016	5.823	2.735	O.co2	2	PTX1	0.000	
130	   O	-1.888	6.564	1.266	O.3	2	PTX1	0.000	
131	   O	0.920	2.050	2.118	O.co2	2	PTX1	0.000	
132	   O	-5.199	8.658	1.378	O.2	2	PTX1	0.000	
133	   O	2.434	9.324	-3.233	O.co2	2	PTX1	0.000	
134	   H	-0.698	3.626	-1.135	 H	2	PTX1	0.000	
135	   H	-3.978	7.425	-0.630	 H	2	PTX1	0.000	
136	   H	-2.344	4.959	-1.542	 H	2	PTX1	0.000	
137	   H	-3.212	4.973	-0.022	 H	2	PTX1	0.000	
138	   H	-5.078	6.349	0.639	 H	2	PTX1	0.000	
139	   H	-8.081	6.204	0.613	 H	2	PTX1	0.000	
140	   H	-8.008	7.624	2.310	 H	2	PTX1	0.000	
141	   H	-4.297	8.111	-3.650	 H	2	PTX1	0.000	
142	   H	-3.576	6.568	-4.227	 H	2	PTX1	0.000	
143	   H	-2.729	8.149	-4.453	 H	2	PTX1	0.000	
144	   H	-5.720	8.582	-1.118	 H	2	PTX1	0.000	
145	   H	-6.468	10.016	-2.892	 H	2	PTX1	0.000	
146	   H	-8.843	10.128	-3.476	 H	2	PTX1	0.000	
147	   H	-10.454	8.769	-2.233	 H	2	PTX1	0.000	
148	   H	-9.712	7.321	-0.451	 H	2	PTX1	0.000	
149	   H	0.651	9.114	-0.635	 H	2	PTX1	0.000	
150	   H	1.229	7.459	-0.563	 H	2	PTX1	0.000	
151	   H	0.529	8.162	0.872	 H	2	PTX1	0.000	
152	   H	-1.576	9.051	1.051	 H	2	PTX1	0.000	
153	   H	-1.515	9.814	-0.561	 H	2	PTX1	0.000	
154	   H	-2.895	8.872	-0.084	 H	2	PTX1	0.000	
155	   H	-0.740	7.552	-4.162	 H	2	PTX1	0.000	
156	   H	0.636	5.761	0.416	 H	2	PTX1	0.000	
157	   H	2.873	3.192	-3.526	 H	2	PTX1	0.000	
158	   H	3.976	4.195	-2.608	 H	2	PTX1	0.000	
159	   H	2.095	5.427	-3.820	 H	2	PTX1	0.000	
160	   H	2.760	1.928	-1.613	 H	2	PTX1	0.000	
161	   H	2.561	4.987	0.373	 H	2	PTX1	0.000	
162	   H	2.530	3.552	1.464	 H	2	PTX1	0.000	
163	   H	0.797	2.428	-2.958	 H	2	PTX1	0.000	
164	   H	-0.819	2.949	-3.279	 H	2	PTX1	0.000	
165	   H	0.500	3.409	-4.413	 H	2	PTX1	0.000	
166	   H	2.527	6.852	-2.346	 H	2	PTX1	0.000	
167	   H	-0.511	5.344	5.094	 H	2	PTX1	0.000	
168	   H	-1.501	4.001	6.810	 H	2	PTX1	0.000	
169	   H	-2.619	1.897	6.266	 H	2	PTX1	0.000	
170	   H	-2.727	1.151	3.941	 H	2	PTX1	0.000	
171	   H	-1.755	2.471	2.189	 H	2	PTX1	0.000	
172	   H	-1.183	6.930	1.809	 H	2	PTX1	0.000	
173	   H	-0.589	-0.023	0.230	 H	2	PTX1	0.000	
174	   H	1.110	-0.563	0.560	 H	2	PTX1	0.000	
175	   H	-0.054	-0.333	1.922	 H	2	PTX1	0.000	
176	   H	-8.238	8.324	3.805	 H	2	PTX1	0.000	
177	   H	-8.403	9.459	5.883	 H	2	PTX1	0.000	
178	   H	-6.628	10.950	6.649	 H	2	PTX1	0.000	
179	   H	-4.646	11.282	5.258	 H	2	PTX1	0.000	
180	   H	-4.425	10.166	3.158	 H	2	PTX1	0.000	
181	   H	-0.226	9.677	-4.752	 H	2	PTX1	0.000	
182	   H	-0.672	9.945	-3.004	 H	2	PTX1	0.000	
183	   H	0.548	10.975	-3.797	 H	2	PTX1	0.000	
184	   H	-3.833	4.863	2.074	 H	2	PTX1	0.000	
185	   H	-4.503	4.562	3.702	 H	2	PTX1	0.000	
186	   H	-4.835	6.104	2.881	 H	2	PTX1	0.000	
187	   H	-8.160	4.440	2.508	 H	2	PTX1	0.000	
188	   H	-7.275	5.861	3.170	 H	2	PTX1	0.000	
189	   H	-7.142	4.295	3.977	 H	2	PTX1	0.000	
@<TRIPOS>BOND
1 1 2 1
2 1 24 1
3 1 25 1
4 2 3 1
5 2 26 1
6 2 27 1
7 3 4 1
8 3 28 1
9 3 29 1
10 4 5 1
11 4 30 1
12 4 31 1
13 5 6 1
14 5 32 1
15 5 33 1
16 6 7 1
17 6 34 1
18 6 35 1
19 7 8 1
20 7 36 1
21 7 37 1
22 8 9 1
23 8 38 1
24 8 39 1
25 9 10 1
26 9 40 1
27 9 41 1
28 10 11 1
29 10 42 1
30 10 43 1
31 11 12 1
32 11 44 1
33 11 45 1
34 12 13 1
35 12 46 1
36 12 47 1
37 13 14 1
38 13 48 1
39 13 49 1
40 14 15 1
41 14 50 1
42 14 51 1
43 15 16 1
44 15 52 1
45 15 53 1
46 16 17 1
47 16 54 1
48 16 55 1
49 17 18 1
50 17 56 1
51 17 57 1
52 18 19 1
53 18 58 1
54 18 59 1
55 19 20 1
56 19 60 1
57 19 61 1
58 20 21 1
59 20 62 1
60 20 63 1
61 21 22 1
62 21 64 1
63 21 65 1
64 22 66 1
65 22 67 1
66 22 68 1
67 1 23 1
68 69 80 1
69 69 140 1
70 70 71 1
71 70 75 2
72 70 81 1
73 71 72 1
74 71 120 1
75 71 135 1
76 72 73 1
77 72 136 1
78 72 137 1
79 73 74 1
80 73 91 1
81 73 130 1
82 74 75 1
83 74 87 1
84 74 88 1
85 75 89 1
86 76 77 1
87 76 121 2
88 77 78 1
89 77 122 1
90 77 138 1
91 69 78 1
92 78 79 1
93 78 139 1
94 79 82 2
95 79 86 1
96 80 110 1
97 80 132 2
98 81 141 1
99 81 142 1
100 81 143 1
101 82 83 1
102 82 144 1
103 83 84 2
104 83 145 1
105 84 85 1
106 84 146 1
107 85 86 2
108 85 147 1
109 86 148 1
110 87 149 1
111 87 150 1
112 87 151 1
113 88 152 1
114 88 153 1
115 88 154 1
116 89 90 1
117 89 123 1
118 89 155 1
119 90 92 1
120 90 124 2
121 91 93 1
122 91 128 1
123 91 156 1
124 92 93 1
125 92 95 1
126 92 99 1
127 93 97 1
128 93 134 1
129 94 95 1
130 94 96 1
131 94 157 1
132 94 158 1
133 95 126 1
134 95 159 1
135 96 97 1
136 96 125 1
137 96 160 1
138 97 98 1
139 97 127 1
140 98 125 1
141 98 161 1
142 98 162 1
143 99 163 1
144 99 164 1
145 99 165 1
146 100 102 1
147 100 129 2
148 101 116 1
149 101 133 2
150 102 103 2
151 102 107 1
152 103 104 1
153 103 167 1
154 104 105 2
155 104 168 1
156 105 106 1
157 105 169 1
158 106 107 2
159 106 170 1
160 107 171 1
161 108 109 1
162 108 131 2
163 109 173 1
164 109 174 1
165 109 175 1
166 110 111 2
167 110 115 1
168 111 112 1
169 111 176 1
170 112 113 2
171 112 177 1
172 113 114 1
173 113 178 1
174 114 115 2
175 114 179 1
176 115 180 1
177 116 181 1
178 116 182 1
179 116 183 1
180 23 117 1
181 117 118 1
182 117 119 1
183 118 184 1
184 118 185 1
185 118 186 1
186 119 187 1
187 119 188 1
188 119 189 1
189 76 120 1
190 117 122 1
191 101 123 1
192 126 166 1
193 108 127 1
194 100 128 1
195 130 172 1
@<TRIPOS>SUBSTRUCTURE
1	PTL1	1	GROUP	1 ****	PTL
2	PTX1	69	GROUP	1 ****	PTX
