@<TRIPOS>MOLECULE
PTX
165 171 1 0 0
SMALL
USER_CHARGES


@<TRIPOS>ATOM
      1 C          -2.9921   17.4915   -0.4670 C.3       1     PTX    0.0000
      2 C          -3.3025   15.9957   -0.3222 C.3       1     PTX    0.0000
      3 C          -2.0734   15.1993    0.1444 C.3       1     PTX    0.0000
      4 C          -2.3791   13.6994    0.2888 C.3       1     PTX    0.0000
      5 C          -1.1481   12.9040    0.7536 C.3       1     PTX    0.0000
      6 C          -1.4501   11.4028    0.8921 C.3       1     PTX    0.0000
      7 C          -0.2160   10.6087    1.3505 C.3       1     PTX    0.0000
      8 C          -0.5112    9.1051    1.4776 C.3       1     PTX    0.0000
      9 C           0.7290    8.3133    1.9233 C.3       1     PTX    0.0000
     10 C           0.4452    6.8061    2.0317 C.3       1     PTX    0.0000
     11 C           1.6954    6.0184    2.4562 C.3       1     PTX    0.0000
     12 C           1.4280    4.5066    2.5366 C.3       1     PTX    0.0000
     13 C           2.6924    3.7240    2.9267 C.3       1     PTX    0.0000
     14 C           2.4457    2.2149    2.9598 C.3       1     PTX    0.0000
     15 O           3.6591    1.5727    3.2714 O.3       1     PTX    0.0000
     16 C           3.7095    0.1821    3.0133 C.3       1     PTX    0.0000
     17 C           5.0492   -0.2946    3.5762 C.3       1     PTX    0.0000
     18 C           2.5626   -0.5618    3.6864 C.3       1     PTX    0.0000
     19 O           3.7366    0.1033    1.6054 O.3       1     PTX    0.0000
     20 C           3.5935   -1.1692    1.0097 C.3       1     PTX    0.0000
     21 C           2.1251   -1.5618    0.7847 C.2       1     PTX    0.0000
     22 O           1.1807   -0.8109    0.8833 O.2       1     PTX    0.0000
     23 O           2.0515   -2.8920    0.5018 O.3       1     PTX    0.0000
     24 C           0.8035   -3.5421    0.4221 C.3       1     PTX    0.0000
     25 C          -0.1730   -2.8909   -0.5763 C.3       1     PTX    0.0000
     26 C          -1.0363   -3.9374   -1.3035 C.3       1     PTX    0.0000
     27 O          -1.7885   -3.2814   -2.2883 O.3       1     PTX    0.0000
     28 C          -2.0494   -4.5242   -0.2834 C.3       1     PTX    0.0000
     29 O          -2.9067   -3.4927    0.1365 O.3       1     PTX    0.0000
     30 C          -2.9263   -2.9887    1.4195 C.2       1     PTX    0.0000
     31 O          -2.1867   -3.4509    2.2668 O.2       1     PTX    0.0000
     32 C          -3.7814   -1.9674    1.7337 C.ar      1     PTX    0.0000
     33 C          -3.8387   -1.4400    2.9728 C.ar      1     PTX    0.0000
     34 C          -4.6876   -0.4391    3.2573 C.ar      1     PTX    0.0000
     35 C          -5.4961    0.0529    2.3076 C.ar      1     PTX    0.0000
     36 C          -5.4491   -0.4622    1.0708 C.ar      1     PTX    0.0000
     37 C          -4.5987   -1.4618    0.7890 C.ar      1     PTX    0.0000
     38 C          -2.8724   -5.7647   -0.7139 C.3       1     PTX    0.0000
     39 C          -2.3817   -7.1437   -0.1374 C.3       1     PTX    0.0000
     40 C          -1.8780   -7.1039    1.3248 C.3       1     PTX    0.0000
     41 C          -1.2156   -7.6432   -1.0488 C.2       1     PTX    0.0000
     42 O          -1.4820   -8.3527   -1.9972 O.2       1     PTX    0.0000
     43 C           0.2772   -7.2554   -0.8657 C.3       1     PTX    0.0000
     44 O           0.8344   -7.9614    0.2291 O.3       1     PTX    0.0000
     45 C           1.1048   -9.2917    0.1250 C.2       1     PTX    0.0000
     46 C           1.6557   -9.8015    1.4423 C.3       1     PTX    0.0000
     47 O           0.9303   -9.9710   -0.8603 O.2       1     PTX    0.0000
     48 C           0.4689   -5.7421   -0.7873 C.2       1     PTX    0.0000
     49 C           1.0033   -5.0551    0.2539 C.2       1     PTX    0.0000
     50 C           1.7400   -5.6695    1.4279 C.3       1     PTX    0.0000
     51 C          -0.0373   -4.9192   -1.9718 C.3       1     PTX    0.0000
     52 C           1.2316   -4.2472   -2.5871 C.3       1     PTX    0.0000
     53 C          -0.5624   -5.6432   -3.2426 C.3       1     PTX    0.0000
     54 C          -3.5118   -8.2143   -0.1799 C.3       1     PTX    0.0000
     55 O          -4.1974   -8.2845    1.0529 O.3       1     PTX    0.0000
     56 C          -4.5491   -8.0069   -1.2788 C.3       1     PTX    0.0000
     57 C          -5.2825   -6.6838   -1.1506 C.3       1     PTX    0.0000
     58 O          -5.9767   -6.5602    0.0694 O.3       1     PTX    0.0000
     59 C          -5.1988   -5.4369    0.4456 C.3       1     PTX    0.0000
     60 C          -4.3826   -5.4825   -0.8490 C.3       1     PTX    0.0000
     61 O          -4.5873   -4.4432   -1.7606 O.3       1     PTX    0.0000
     62 C          -5.7835   -3.8645   -2.0547 C.2       1     PTX    0.0000
     63 C          -5.5634   -2.7738   -3.0873 C.3       1     PTX    0.0000
     64 O          -6.8640   -4.1447   -1.5905 O.2       1     PTX    0.0000
     65 C           4.3938   -1.1444   -0.3139 C.3       1     PTX    0.0000
     66 N           4.4407   -2.4971   -0.8860 N.am      1     PTX    0.0000
     67 C           4.8510   -2.8940   -2.1314 C.2       1     PTX    0.0000
     68 O           4.5219   -4.0269   -2.3998 O.2       1     PTX    0.0000
     69 C           5.4091   -2.0882   -3.0834 C.ar      1     PTX    0.0000
     70 C           5.2263   -2.3804   -4.3885 C.ar      1     PTX    0.0000
     71 C           5.7421   -1.6130   -5.3620 C.ar      1     PTX    0.0000
     72 C           6.4703   -0.5314   -5.0532 C.ar      1     PTX    0.0000
     73 C           6.6853   -0.2375   -3.7637 C.ar      1     PTX    0.0000
     74 C           6.1649   -1.0113   -2.7977 C.ar      1     PTX    0.0000
     75 C           3.7709   -0.1279   -1.2561 C.ar      1     PTX    0.0000
     76 C           2.7787   -0.4553   -2.1034 C.ar      1     PTX    0.0000
     77 C           2.2331    0.4546   -2.9246 C.ar      1     PTX    0.0000
     78 C           2.6733    1.7212   -2.9083 C.ar      1     PTX    0.0000
     79 C           3.6576    2.0676   -2.0658 C.ar      1     PTX    0.0000
     80 C           4.1963    1.1492   -1.2493 C.ar      1     PTX    0.0000
     81 H          -3.8917   18.0555   -0.8055 H         1     PTX    0.0000
     82 H          -2.6629   17.9294    0.5030 H         1     PTX    0.0000
     83 H          -2.1837   17.6637   -1.2139 H         1     PTX    0.0000
     84 H          -3.6556   15.5976   -1.3035 H         1     PTX    0.0000
     85 H          -4.1345   15.8625    0.4101 H         1     PTX    0.0000
     86 H          -1.7236   15.6018    1.1247 H         1     PTX    0.0000
     87 H          -1.2439   15.3389   -0.5889 H         1     PTX    0.0000
     88 H          -2.7297   13.2981   -0.6918 H         1     PTX    0.0000
     89 H          -3.2082   13.5597    1.0226 H         1     PTX    0.0000
     90 H          -0.7991   13.3031    1.7356 H         1     PTX    0.0000
     91 H          -0.3184   13.0475    0.0211 H         1     PTX    0.0000
     92 H          -1.8014   11.0050   -0.0896 H         1     PTX    0.0000
     93 H          -2.2774   11.2574    1.6268 H         1     PTX    0.0000
     94 H           0.1323   11.0017    2.3352 H         1     PTX    0.0000
     95 H           0.6125   10.7611    0.6185 H         1     PTX    0.0000
     96 H          -0.8645    8.7144    0.4937 H         1     PTX    0.0000
     97 H          -1.3348    8.9492    2.2143 H         1     PTX    0.0000
     98 H           1.0777    8.6963    2.9117 H         1     PTX    0.0000
     99 H           1.5542    8.4804    1.1907 H         1     PTX    0.0000
    100 H           0.0878    6.4268    1.0449 H         1     PTX    0.0000
    101 H          -0.3717    6.6332    2.7720 H         1     PTX    0.0000
    102 H           2.0464    6.3859    3.4497 H         1     PTX    0.0000
    103 H           2.5144    6.2078    1.7220 H         1     PTX    0.0000
    104 H           1.0624    4.1456    1.5458 H         1     PTX    0.0000
    105 H           0.6225    4.3083    3.2828 H         1     PTX    0.0000
    106 H           3.0519    4.0654    3.9267 H         1     PTX    0.0000
    107 H           3.5007    3.9447    2.1884 H         1     PTX    0.0000
    108 H           2.0698    1.8885    1.9649 H         1     PTX    0.0000
    109 H           1.6885    1.9797    3.7419 H         1     PTX    0.0000
    110 H           5.1942   -1.3924    3.4751 H         1     PTX    0.0000
    111 H           5.1273   -0.0621    4.6630 H         1     PTX    0.0000
    112 H           5.9048    0.2060    3.0676 H         1     PTX    0.0000
    113 H           2.5484   -0.3437    4.7786 H         1     PTX    0.0000
    114 H           1.5615   -0.2902    3.2907 H         1     PTX    0.0000
    115 H           2.6656   -1.6653    3.5882 H         1     PTX    0.0000
    116 H           4.0588   -1.9362    1.6698 H         1     PTX    0.0000
    117 H           0.3381   -3.4419    1.4350 H         1     PTX    0.0000
    118 H          -0.8269   -2.1490   -0.0662 H         1     PTX    0.0000
    119 H           0.3637   -2.2655   -1.3222 H         1     PTX    0.0000
    120 H          -2.3732   -2.6493   -1.8589 H         1     PTX    0.0000
    121 H          -1.4565   -4.8408    0.5862 H         1     PTX    0.0000
    122 H          -3.2004   -1.8021    3.7957 H         1     PTX    0.0000
    123 H          -4.7231   -0.0180    4.2764 H         1     PTX    0.0000
    124 H          -6.1937    0.8742    2.5417 H         1     PTX    0.0000
    125 H          -6.1116   -0.0622    0.2846 H         1     PTX    0.0000
    126 H          -4.6026   -1.8461   -0.2437 H         1     PTX    0.0000
    127 H          -2.6938   -5.8650   -1.8041 H         1     PTX    0.0000
    128 H          -2.5976   -6.5974    2.0047 H         1     PTX    0.0000
    129 H          -1.6927   -8.1301    1.7165 H         1     PTX    0.0000
    130 H          -0.9227   -6.5704    1.4704 H         1     PTX    0.0000
    131 H           0.8530   -7.5603   -1.7714 H         1     PTX    0.0000
    132 H           0.9139   -9.6434    2.2579 H         1     PTX    0.0000
    133 H           1.8782  -10.8906    1.3826 H         1     PTX    0.0000
    134 H           2.5988   -9.2682    1.7001 H         1     PTX    0.0000
    135 H           1.0510   -6.1310    2.1671 H         1     PTX    0.0000
    136 H           2.5047   -6.4035    1.0939 H         1     PTX    0.0000
    137 H           2.3308   -4.9149    1.9912 H         1     PTX    0.0000
    138 H           0.9687   -3.4769   -3.3476 H         1     PTX    0.0000
    139 H           1.9105   -3.7655   -1.8589 H         1     PTX    0.0000
    140 H           1.8925   -4.9927   -3.0850 H         1     PTX    0.0000
    141 H          -0.7843   -4.9122   -4.0530 H         1     PTX    0.0000
    142 H           0.1823   -6.3565   -3.6612 H         1     PTX    0.0000
    143 H          -1.4894   -6.2292   -3.1615 H         1     PTX    0.0000
    144 H          -3.0664   -9.2331   -0.2912 H         1     PTX    0.0000
    145 H          -5.1365   -8.4205    0.9104 H         1     PTX    0.0000
    146 H          -4.0634   -8.0384   -2.2812 H         1     PTX    0.0000
    147 H          -5.2928   -8.8390   -1.2627 H         1     PTX    0.0000
    148 H          -5.9951   -6.5380   -1.9930 H         1     PTX    0.0000
    149 H          -5.8336   -4.5431    0.6103 H         1     PTX    0.0000
    150 H          -4.6099   -5.6683    1.3572 H         1     PTX    0.0000
    151 H          -4.8015   -2.0429   -2.7330 H         1     PTX    0.0000
    152 H          -5.2170   -3.2194   -4.0473 H         1     PTX    0.0000
    153 H          -6.5076   -2.2174   -3.2829 H         1     PTX    0.0000
    154 H           5.4330   -0.8644   -0.0211 H         1     PTX    0.0000
    155 H           4.0178   -3.2530   -0.3464 H         1     PTX    0.0000
    156 H           4.6245   -3.2463   -4.7133 H         1     PTX    0.0000
    157 H           5.5647   -1.8678   -6.4207 H         1     PTX    0.0000
    158 H           6.8987    0.0999   -5.8491 H         1     PTX    0.0000
    159 H           7.3064    0.6352   -3.4993 H         1     PTX    0.0000
    160 H           6.4297   -0.7366   -1.7696 H         1     PTX    0.0000
    161 H           2.3962   -1.4858   -2.1374 H         1     PTX    0.0000
    162 H           1.4219    0.1610   -3.6118 H         1     PTX    0.0000
    163 H           2.2274    2.4727   -3.5806 H         1     PTX    0.0000
    164 H           4.0229    3.1080   -2.0437 H         1     PTX    0.0000
    165 H           5.0027    1.4565   -0.5629 H         1     PTX    0.0000
@<TRIPOS>BOND
     1     1     2     1
     2     1    81     1
     3     1    82     1
     4     1    83     1
     5     2     3     1
     6     2    84     1
     7     2    85     1
     8     3     4     1
     9     3    86     1
    10     3    87     1
    11     4     5     1
    12     4    88     1
    13     4    89     1
    14     5     6     1
    15     5    90     1
    16     5    91     1
    17     6     7     1
    18     6    92     1
    19     6    93     1
    20     7     8     1
    21     7    94     1
    22     7    95     1
    23     8     9     1
    24     8    96     1
    25     8    97     1
    26     9    10     1
    27     9    98     1
    28     9    99     1
    29    10    11     1
    30    10   100     1
    31    10   101     1
    32    11    12     1
    33    11   102     1
    34    11   103     1
    35    12    13     1
    36    12   104     1
    37    12   105     1
    38    13    14     1
    39    13   106     1
    40    13   107     1
    41    14    15     1
    42    14   108     1
    43    14   109     1
    44    15    16     1
    45    16    17     1
    46    16    18     1
    47    16    19     1
    48    17   110     1
    49    17   111     1
    50    17   112     1
    51    18   113     1
    52    18   114     1
    53    18   115     1
    54    19    20     1
    55    20    21     1
    56    20    65     1
    57    20   116     1
    58    21    22     2
    59    21    23     1
    60    23    24     1
    61    24    25     1
    62    24    49     1
    63    24   117     1
    64    25    26     1
    65    25   118     1
    66    25   119     1
    67    26    27     1
    68    26    28     1
    69    26    51     1
    70    27   120     1
    71    28    29     1
    72    28    38     1
    73    28   121     1
    74    29    30     1
    75    30    31     2
    76    30    32     1
    77    32    33     1
    78    32    37     2
    79    33    34     2
    80    33   122     1
    81    34    35     1
    82    34   123     1
    83    35    36     2
    84    35   124     1
    85    36    37     1
    86    36   125     1
    87    37   126     1
    88    38    39     1
    89    38    60     1
    90    38   127     1
    91    39    40     1
    92    39    41     1
    93    39    54     1
    94    40   128     1
    95    40   129     1
    96    40   130     1
    97    41    42     2
    98    41    43     1
    99    43    44     1
   100    43    48     1
   101    43   131     1
   102    44    45     1
   103    45    46     1
   104    45    47     2
   105    46   132     1
   106    46   133     1
   107    46   134     1
   108    48    49     2
   109    48    51     1
   110    49    50     1
   111    50   135     1
   112    50   136     1
   113    50   137     1
   114    51    52     1
   115    51    53     1
   116    52   138     1
   117    52   139     1
   118    52   140     1
   119    53   141     1
   120    53   142     1
   121    53   143     1
   122    54    55     1
   123    54    56     1
   124    54   144     1
   125    55   145     1
   126    56    57     1
   127    56   146     1
   128    56   147     1
   129    57    58     1
   130    57    60     1
   131    57   148     1
   132    58    59     1
   133    59    60     1
   134    59   149     1
   135    59   150     1
   136    60    61     1
   137    61    62     1
   138    62    63     1
   139    62    64     2
   140    63   151     1
   141    63   152     1
   142    63   153     1
   143    65    66     1
   144    65    75     1
   145    65   154     1
   146    66    67     1
   147    66   155     1
   148    67    68     2
   149    67    69     1
   150    69    70     1
   151    69    74     2
   152    70    71     2
   153    70   156     1
   154    71    72     1
   155    71   157     1
   156    72    73     2
   157    72   158     1
   158    73    74     1
   159    73   159     1
   160    74   160     1
   161    75    76     1
   162    75    80     2
   163    76    77     2
   164    76   161     1
   165    77    78     1
   166    77   162     1
   167    78    79     2
   168    78   163     1
   169    79    80     1
   170    79   164     1
   171    80   165     1
