@<TRIPOS>MOLECULE
PTX
153 159 1 0 0
SMALL
USER_CHARGES


@<TRIPOS>ATOM
      1 C          -0.4105    7.6992    8.4515 C.3       1     PTX    0.0000
      2 C           0.7639    7.2544    7.5696 C.3       1     PTX    0.0000
      3 C           0.2843    6.5338    6.2996 C.3       1     PTX    0.0000
      4 C           1.4581    6.0820    5.4154 C.3       1     PTX    0.0000
      5 C           0.9769    5.3556    4.1488 C.3       1     PTX    0.0000
      6 C           2.1499    4.8903    3.2704 C.3       1     PTX    0.0000
      7 C           1.6663    4.1485    2.0136 C.3       1     PTX    0.0000
      8 C           2.8376    3.6576    1.1473 C.3       1     PTX    0.0000
      9 C           2.3507    2.8862   -0.0902 C.3       1     PTX    0.0000
     10 C           3.5158    2.3539   -0.9260 C.3       1     PTX    0.0000
     11 O           2.9921    1.6160   -2.0045 O.3       1     PTX    0.0000
     12 C           3.9055    0.7696   -2.6770 C.3       1     PTX    0.0000
     13 C           3.1483    0.2159   -3.8848 C.3       1     PTX    0.0000
     14 C           5.1450    1.5265   -3.1388 C.3       1     PTX    0.0000
     15 O           4.1383   -0.2728   -1.7558 O.3       1     PTX    0.0000
     16 C           5.1888   -1.1762   -2.0289 C.3       1     PTX    0.0000
     17 C           6.5475   -0.6873   -1.5047 C.2       1     PTX    0.0000
     18 O           6.7055    0.2336   -0.7349 O.2       1     PTX    0.0000
     19 O           7.5433   -1.4224   -2.0731 O.3       1     PTX    0.0000
     20 C           8.8932   -1.0625   -1.8857 C.3       1     PTX    0.0000
     21 C           9.3059   -0.9583   -0.4047 C.3       1     PTX    0.0000
     22 C          10.7480   -1.4439   -0.1730 C.3       1     PTX    0.0000
     23 O          10.9939   -1.4533    1.2074 O.3       1     PTX    0.0000
     24 C          11.7158   -0.4000   -0.7932 C.3       1     PTX    0.0000
     25 O          11.5648    0.8135   -0.1006 O.3       1     PTX    0.0000
     26 C          11.0319    1.9541   -0.6624 C.2       1     PTX    0.0000
     27 O          10.6945    1.9574   -1.8306 O.2       1     PTX    0.0000
     28 C          10.8818    3.0794    0.1020 C.ar      1     PTX    0.0000
     29 C          10.3637    4.2185   -0.3988 C.ar      1     PTX    0.0000
     30 C          10.2275    5.3104    0.3709 C.ar      1     PTX    0.0000
     31 C          10.6078    5.2837    1.6563 C.ar      1     PTX    0.0000
     32 C          11.1246    4.1572    2.1673 C.ar      1     PTX    0.0000
     33 C          11.2585    3.0669    1.3957 C.ar      1     PTX    0.0000
     34 C          13.2152   -0.7770   -0.8955 C.3       1     PTX    0.0000
     35 C          13.7119   -1.2205   -2.3207 C.3       1     PTX    0.0000
     36 C          13.0985   -0.4364   -3.5049 C.3       1     PTX    0.0000
     37 C          13.3550   -2.7317   -2.4905 C.2       1     PTX    0.0000
     38 O          14.1742   -3.5635   -2.1576 O.2       1     PTX    0.0000
     39 C          11.9923   -3.2645   -3.0118 C.3       1     PTX    0.0000
     40 O          11.9037   -3.0882   -4.4149 O.3       1     PTX    0.0000
     41 C          12.6309   -3.8748   -5.2553 C.2       1     PTX    0.0000
     42 C          12.3806   -3.4513   -6.6893 C.3       1     PTX    0.0000
     43 O          13.3696   -4.7712   -4.9184 O.2       1     PTX    0.0000
     44 C          10.8137   -2.6749   -2.2394 C.2       1     PTX    0.0000
     45 C           9.8030   -1.9352   -2.7619 C.2       1     PTX    0.0000
     46 C           9.5111   -1.7629   -4.2396 C.3       1     PTX    0.0000
     47 C          10.8001   -2.8929   -0.7264 C.3       1     PTX    0.0000
     48 C           9.5273   -3.7515   -0.4381 C.3       1     PTX    0.0000
     49 C          11.8643   -3.8185   -0.0742 C.3       1     PTX    0.0000
     50 C          15.2566   -1.0771   -2.4563 C.3       1     PTX    0.0000
     51 O          15.6064    0.1562   -3.0492 O.3       1     PTX    0.0000
     52 C          16.0285   -1.1997   -1.1464 C.3       1     PTX    0.0000
     53 C          15.6349   -0.1404   -0.1324 C.3       1     PTX    0.0000
     54 O          15.8610    1.1706   -0.5969 O.3       1     PTX    0.0000
     55 C          14.4817    1.4837   -0.5089 C.3       1     PTX    0.0000
     56 C          14.1266    0.0847    0.0017 C.3       1     PTX    0.0000
     57 O          13.7067   -0.0136    1.3310 O.3       1     PTX    0.0000
     58 C          14.2160    0.6851    2.3820 C.2       1     PTX    0.0000
     59 C          13.4755    0.2854    3.6455 C.3       1     PTX    0.0000
     60 O          15.1099    1.4986    2.3537 O.2       1     PTX    0.0000
     61 C           4.7919   -2.5374   -1.4107 C.3       1     PTX    0.0000
     62 N           5.7536   -3.5657   -1.8311 N.am      1     PTX    0.0000
     63 C           5.9061   -4.8460   -1.3676 C.2       1     PTX    0.0000
     64 O           6.9452   -5.3560   -1.7197 O.2       1     PTX    0.0000
     65 C           5.1017   -5.4676   -0.4545 C.ar      1     PTX    0.0000
     66 C           5.6244   -6.4163    0.3510 C.ar      1     PTX    0.0000
     67 C           4.8807   -7.0470    1.2738 C.ar      1     PTX    0.0000
     68 C           3.5807   -6.7517    1.4085 C.ar      1     PTX    0.0000
     69 C           3.0354   -5.8308    0.6023 C.ar      1     PTX    0.0000
     70 C           3.7881   -5.2058   -0.3172 C.ar      1     PTX    0.0000
     71 C           4.7061   -2.3959    0.0997 C.ar      1     PTX    0.0000
     72 C           5.7730   -2.5906    0.8958 C.ar      1     PTX    0.0000
     73 C           5.6843   -2.4543    2.2275 C.ar      1     PTX    0.0000
     74 C           4.5154   -2.1140    2.7899 C.ar      1     PTX    0.0000
     75 C           3.4423   -1.9104    2.0117 C.ar      1     PTX    0.0000
     76 C           3.5422   -2.0500    0.6809 C.ar      1     PTX    0.0000
     77 H          -0.0478    8.2198    9.3676 H         1     PTX    0.0000
     78 H          -1.0798    8.4023    7.9049 H         1     PTX    0.0000
     79 H          -1.0214    6.8265    8.7775 H         1     PTX    0.0000
     80 H           1.4269    6.5753    8.1572 H         1     PTX    0.0000
     81 H           1.3697    8.1482    7.2863 H         1     PTX    0.0000
     82 H          -0.3780    7.2163    5.7156 H         1     PTX    0.0000
     83 H          -0.3247    5.6445    6.5889 H         1     PTX    0.0000
     84 H           2.1208    5.4022    6.0019 H         1     PTX    0.0000
     85 H           2.0660    6.9712    5.1236 H         1     PTX    0.0000
     86 H           0.3196    6.0368    3.5579 H         1     PTX    0.0000
     87 H           0.3630    4.4712    4.4428 H         1     PTX    0.0000
     88 H           2.8102    4.2157    3.8656 H         1     PTX    0.0000
     89 H           2.7608    5.7736    2.9674 H         1     PTX    0.0000
     90 H           1.0165    4.8252    1.4094 H         1     PTX    0.0000
     91 H           1.0442    3.2742    2.3205 H         1     PTX    0.0000
     92 H           3.4935    2.9942    1.7601 H         1     PTX    0.0000
     93 H           3.4539    4.5294    0.8231 H         1     PTX    0.0000
     94 H           1.7115    3.5500   -0.7199 H         1     PTX    0.0000
     95 H           1.7170    2.0281    0.2403 H         1     PTX    0.0000
     96 H           4.1569    1.7119   -0.2823 H         1     PTX    0.0000
     97 H           4.1137    3.2088   -1.3158 H         1     PTX    0.0000
     98 H           3.7763   -0.4478   -4.5187 H         1     PTX    0.0000
     99 H           2.7907    1.0416   -4.5416 H         1     PTX    0.0000
    100 H           2.2535   -0.3689   -3.5704 H         1     PTX    0.0000
    101 H           4.8529    2.4023   -3.7621 H         1     PTX    0.0000
    102 H           5.7662    1.9180   -2.3061 H         1     PTX    0.0000
    103 H           5.8075    0.8978   -3.7742 H         1     PTX    0.0000
    104 H           5.2698   -1.3180   -3.1308 H         1     PTX    0.0000
    105 H           9.0032   -0.0369   -2.3204 H         1     PTX    0.0000
    106 H           9.1929    0.0842   -0.0324 H         1     PTX    0.0000
    107 H           8.6109   -1.5237    0.2529 H         1     PTX    0.0000
    108 H          10.9204   -0.5532    1.5393 H         1     PTX    0.0000
    109 H          11.3713   -0.2412   -1.8247 H         1     PTX    0.0000
    110 H          10.0336    4.3027   -1.4474 H         1     PTX    0.0000
    111 H           9.8017    6.2356   -0.0534 H         1     PTX    0.0000
    112 H          10.4966    6.1807    2.2879 H         1     PTX    0.0000
    113 H          11.4400    4.1284    3.2241 H         1     PTX    0.0000
    114 H          11.6892    2.1693    1.8681 H         1     PTX    0.0000
    115 H          13.3229   -1.6990   -0.2883 H         1     PTX    0.0000
    116 H          13.1655    0.6643   -3.3613 H         1     PTX    0.0000
    117 H          13.6031   -0.6933   -4.4642 H         1     PTX    0.0000
    118 H          12.0285   -0.6366   -3.6873 H         1     PTX    0.0000
    119 H          11.9263   -4.3619   -2.8210 H         1     PTX    0.0000
    120 H          12.6796   -2.3884   -6.8357 H         1     PTX    0.0000
    121 H          12.9711   -4.0777   -7.3952 H         1     PTX    0.0000
    122 H          11.3023   -3.5641   -6.9439 H         1     PTX    0.0000
    123 H          10.2032   -1.0441   -4.7279 H         1     PTX    0.0000
    124 H           9.5154   -2.7365   -4.7754 H         1     PTX    0.0000
    125 H           8.4866   -1.3705   -4.4195 H         1     PTX    0.0000
    126 H           9.3113   -3.8243    0.6522 H         1     PTX    0.0000
    127 H           8.5999   -3.4016   -0.9289 H         1     PTX    0.0000
    128 H           9.6349   -4.7903   -0.8251 H         1     PTX    0.0000
    129 H          11.6523   -3.9657    1.0092 H         1     PTX    0.0000
    130 H          11.8783   -4.8337   -0.5300 H         1     PTX    0.0000
    131 H          12.9152   -3.4947   -0.0907 H         1     PTX    0.0000
    132 H          15.6470   -1.8356   -3.1780 H         1     PTX    0.0000
    133 H          16.3938    0.5183   -2.6375 H         1     PTX    0.0000
    134 H          15.8562   -2.2004   -0.6872 H         1     PTX    0.0000
    135 H          17.1249   -1.1275   -1.3421 H         1     PTX    0.0000
    136 H          16.1762   -0.2860    0.8291 H         1     PTX    0.0000
    137 H          14.3034    2.3328    0.1813 H         1     PTX    0.0000
    138 H          14.0767    1.7111   -1.5167 H         1     PTX    0.0000
    139 H          12.3777    0.4239    3.5203 H         1     PTX    0.0000
    140 H          13.6792   -0.7825    3.8871 H         1     PTX    0.0000
    141 H          13.8032    0.9059    4.5097 H         1     PTX    0.0000
    142 H           3.8056   -2.7880   -1.8670 H         1     PTX    0.0000
    143 H           6.4910   -3.2854   -2.4785 H         1     PTX    0.0000
    144 H           6.6904   -6.6974    0.3051 H         1     PTX    0.0000
    145 H           5.3382   -7.8084    1.9282 H         1     PTX    0.0000
    146 H           2.9649   -7.2693    2.1626 H         1     PTX    0.0000
    147 H           1.9598   -5.6000    0.6868 H         1     PTX    0.0000
    148 H           3.2574   -4.5054   -0.9731 H         1     PTX    0.0000
    149 H           6.7449   -2.8687    0.4626 H         1     PTX    0.0000
    150 H           6.5729   -2.6209    2.8592 H         1     PTX    0.0000
    151 H           4.4379   -1.9999    3.8839 H         1     PTX    0.0000
    152 H           2.4782   -1.6271    2.4661 H         1     PTX    0.0000
    153 H           2.6480   -1.8753    0.0597 H         1     PTX    0.0000
@<TRIPOS>BOND
     1     1     2     1
     2     1    77     1
     3     1    78     1
     4     1    79     1
     5     2     3     1
     6     2    80     1
     7     2    81     1
     8     3     4     1
     9     3    82     1
    10     3    83     1
    11     4     5     1
    12     4    84     1
    13     4    85     1
    14     5     6     1
    15     5    86     1
    16     5    87     1
    17     6     7     1
    18     6    88     1
    19     6    89     1
    20     7     8     1
    21     7    90     1
    22     7    91     1
    23     8     9     1
    24     8    92     1
    25     8    93     1
    26     9    10     1
    27     9    94     1
    28     9    95     1
    29    10    11     1
    30    10    96     1
    31    10    97     1
    32    11    12     1
    33    12    13     1
    34    12    14     1
    35    12    15     1
    36    13    98     1
    37    13    99     1
    38    13   100     1
    39    14   101     1
    40    14   102     1
    41    14   103     1
    42    15    16     1
    43    16    17     1
    44    16    61     1
    45    16   104     1
    46    17    18     2
    47    17    19     1
    48    19    20     1
    49    20    21     1
    50    20    45     1
    51    20   105     1
    52    21    22     1
    53    21   106     1
    54    21   107     1
    55    22    23     1
    56    22    24     1
    57    22    47     1
    58    23   108     1
    59    24    25     1
    60    24    34     1
    61    24   109     1
    62    25    26     1
    63    26    27     2
    64    26    28     1
    65    28    29     1
    66    28    33     2
    67    29    30     2
    68    29   110     1
    69    30    31     1
    70    30   111     1
    71    31    32     2
    72    31   112     1
    73    32    33     1
    74    32   113     1
    75    33   114     1
    76    34    35     1
    77    34    56     1
    78    34   115     1
    79    35    36     1
    80    35    37     1
    81    35    50     1
    82    36   116     1
    83    36   117     1
    84    36   118     1
    85    37    38     2
    86    37    39     1
    87    39    40     1
    88    39    44     1
    89    39   119     1
    90    40    41     1
    91    41    42     1
    92    41    43     2
    93    42   120     1
    94    42   121     1
    95    42   122     1
    96    44    45     2
    97    44    47     1
    98    45    46     1
    99    46   123     1
   100    46   124     1
   101    46   125     1
   102    47    48     1
   103    47    49     1
   104    48   126     1
   105    48   127     1
   106    48   128     1
   107    49   129     1
   108    49   130     1
   109    49   131     1
   110    50    51     1
   111    50    52     1
   112    50   132     1
   113    51   133     1
   114    52    53     1
   115    52   134     1
   116    52   135     1
   117    53    54     1
   118    53    56     1
   119    53   136     1
   120    54    55     1
   121    55    56     1
   122    55   137     1
   123    55   138     1
   124    56    57     1
   125    57    58     1
   126    58    59     1
   127    58    60     2
   128    59   139     1
   129    59   140     1
   130    59   141     1
   131    61    62     1
   132    61    71     1
   133    61   142     1
   134    62    63     1
   135    62   143     1
   136    63    64     2
   137    63    65     1
   138    65    66     1
   139    65    70     2
   140    66    67     2
   141    66   144     1
   142    67    68     1
   143    67   145     1
   144    68    69     2
   145    68   146     1
   146    69    70     1
   147    69   147     1
   148    70   148     1
   149    71    72     1
   150    71    76     2
   151    72    73     2
   152    72   149     1
   153    73    74     1
   154    73   150     1
   155    74    75     2
   156    74   151     1
   157    75    76     1
   158    75   152     1
   159    76   153     1
