@<TRIPOS>MOLECULE
PTX
141 147 1 0 0
SMALL
USER_CHARGES


@<TRIPOS>ATOM
      1 C          -0.2967   10.7407    0.8787 C.3       1     PTX    0.0000
      2 C          -0.4538    9.2306    1.1015 C.3       1     PTX    0.0000
      3 C           0.8507    8.5875    1.5983 C.3       1     PTX    0.0000
      4 C           0.6997    7.0732    1.8162 C.3       1     PTX    0.0000
      5 C           2.0084    6.4298    2.3028 C.3       1     PTX    0.0000
      6 C           1.8636    4.9191    2.4937 C.3       1     PTX    0.0000
      7 O           3.1031    4.4000    2.9123 O.3       1     PTX    0.0000
      8 C           3.2408    2.9931    2.8425 C.3       1     PTX    0.0000
      9 C           4.5833    2.6735    3.5018 C.3       1     PTX    0.0000
     10 C           2.1140    2.2756    3.5769 C.3       1     PTX    0.0000
     11 O           3.3287    2.7293    1.4596 O.3       1     PTX    0.0000
     12 C           3.2341    1.3850    1.0368 C.3       1     PTX    0.0000
     13 C           1.7834    0.9362    0.8026 C.2       1     PTX    0.0000
     14 O           0.8254    1.6751    0.7570 O.2       1     PTX    0.0000
     15 O           1.7398   -0.4212    0.7001 O.3       1     PTX    0.0000
     16 C           0.5036   -1.0965    0.6524 C.3       1     PTX    0.0000
     17 C          -0.4253   -0.6082   -0.4760 C.3       1     PTX    0.0000
     18 C          -1.2410   -1.7601   -1.0899 C.3       1     PTX    0.0000
     19 O          -1.9461   -1.2616   -2.1945 O.3       1     PTX    0.0000
     20 C          -2.3008   -2.2119   -0.0488 C.3       1     PTX    0.0000
     21 O          -3.1866   -1.1443    0.1771 O.3       1     PTX    0.0000
     22 C          -3.2757   -0.4639    1.3729 C.2       1     PTX    0.0000
     23 O          -2.5797   -0.7928    2.3142 O.2       1     PTX    0.0000
     24 C          -4.1499    0.5821    1.4941 C.ar      1     PTX    0.0000
     25 C          -4.2740    1.2796    2.6408 C.ar      1     PTX    0.0000
     26 C          -5.1404    2.3011    2.7358 C.ar      1     PTX    0.0000
     27 C          -5.8997    2.6442    1.6854 C.ar      1     PTX    0.0000
     28 C          -5.7860    1.9592    0.5386 C.ar      1     PTX    0.0000
     29 C          -4.9183    0.9391    0.4463 C.ar      1     PTX    0.0000
     30 C          -3.0908   -3.5128   -0.3402 C.3       1     PTX    0.0000
     31 C          -2.6204   -4.7889    0.4503 C.3       1     PTX    0.0000
     32 C          -2.1940   -4.5352    1.9156 C.3       1     PTX    0.0000
     33 C          -1.4044   -5.3945   -0.3208 C.2       1     PTX    0.0000
     34 O          -1.6153   -6.2349   -1.1711 O.2       1     PTX    0.0000
     35 C           0.0738   -4.9622   -0.1191 C.3       1     PTX    0.0000
     36 O           0.5781   -5.4974    1.0920 O.3       1     PTX    0.0000
     37 C           0.8626   -6.8250    1.1927 C.2       1     PTX    0.0000
     38 C           1.3472   -7.1346    2.5956 C.3       1     PTX    0.0000
     39 O           0.7444   -7.6398    0.3068 O.2       1     PTX    0.0000
     40 C           0.2500   -3.4504   -0.2474 C.2       1     PTX    0.0000
     41 C           0.7243   -2.6148    0.7110 C.2       1     PTX    0.0000
     42 C           1.4035   -3.0453    1.9963 C.3       1     PTX    0.0000
     43 C          -0.2005   -2.8110   -1.5607 C.3       1     PTX    0.0000
     44 C           1.0932   -2.2131   -2.2004 C.3       1     PTX    0.0000
     45 C          -0.6527   -3.7155   -2.7406 C.3       1     PTX    0.0000
     46 C          -3.7386   -5.8715    0.5029 C.3       1     PTX    0.0000
     47 O          -4.4870   -5.7769    1.6969 O.3       1     PTX    0.0000
     48 C          -4.7187   -5.8369   -0.6654 C.3       1     PTX    0.0000
     49 C          -5.4677   -4.5199   -0.7636 C.3       1     PTX    0.0000
     50 O          -6.2257   -4.2356    0.3899 O.3       1     PTX    0.0000
     51 C          -5.4770   -3.0590    0.6420 C.3       1     PTX    0.0000
     52 C          -4.5939   -3.2749   -0.5900 C.3       1     PTX    0.0000
     53 O          -4.7585   -2.3778   -1.6488 O.3       1     PTX    0.0000
     54 C          -5.9420   -1.8641   -2.0821 C.2       1     PTX    0.0000
     55 C          -5.6764   -0.9267   -3.2463 C.3       1     PTX    0.0000
     56 O          -7.0432   -2.0920   -1.6384 O.2       1     PTX    0.0000
     57 C           4.0973    1.2441   -0.2390 C.3       1     PTX    0.0000
     58 N           4.1917   -0.1738   -0.6129 N.am      1     PTX    0.0000
     59 C           4.6701   -0.7320   -1.7689 C.2       1     PTX    0.0000
     60 O           4.3697   -1.8976   -1.8914 O.2       1     PTX    0.0000
     61 C           5.2662   -0.0563   -2.7960 C.ar      1     PTX    0.0000
     62 C           5.1559   -0.5322   -4.0543 C.ar      1     PTX    0.0000
     63 C           5.7115    0.1014   -5.0995 C.ar      1     PTX    0.0000
     64 C           6.4081    1.2304   -4.9106 C.ar      1     PTX    0.0000
     65 C           6.5513    1.7067   -3.6664 C.ar      1     PTX    0.0000
     66 C           5.9915    1.0656   -2.6281 C.ar      1     PTX    0.0000
     67 C           3.5075    2.1056   -1.3428 C.ar      1     PTX    0.0000
     68 C           2.5642    1.6415   -2.1822 C.ar      1     PTX    0.0000
     69 C           2.0478    2.4155   -3.1487 C.ar      1     PTX    0.0000
     70 C           2.4686    3.6809   -3.2902 C.ar      1     PTX    0.0000
     71 C           3.4041    4.1628   -2.4588 C.ar      1     PTX    0.0000
     72 C           3.9139    3.3797   -1.4959 C.ar      1     PTX    0.0000
     73 H          -1.2495   11.1931    0.5190 H         1     PTX    0.0000
     74 H          -0.0107   11.2586    1.8226 H         1     PTX    0.0000
     75 H           0.4881   10.9550    0.1176 H         1     PTX    0.0000
     76 H          -0.7672    8.7494    0.1442 H         1     PTX    0.0000
     77 H          -1.2662    9.0514    1.8458 H         1     PTX    0.0000
     78 H           1.1598    9.0703    2.5558 H         1     PTX    0.0000
     79 H           1.6601    8.7750    0.8532 H         1     PTX    0.0000
     80 H           0.3861    6.5934    0.8585 H         1     PTX    0.0000
     81 H          -0.1065    6.8837    2.5641 H         1     PTX    0.0000
     82 H           2.3206    6.8985    3.2664 H         1     PTX    0.0000
     83 H           2.8153    6.6296    1.5572 H         1     PTX    0.0000
     84 H           1.5493    4.4604    1.5301 H         1     PTX    0.0000
     85 H           1.0941    4.7196    3.2735 H         1     PTX    0.0000
     86 H           4.7985    1.5828    3.5318 H         1     PTX    0.0000
     87 H           4.6036    3.0339    4.5557 H         1     PTX    0.0000
     88 H           5.4266    3.1668    2.9661 H         1     PTX    0.0000
     89 H           2.0413    2.6427    4.6260 H         1     PTX    0.0000
     90 H           1.1153    2.4207    3.1144 H         1     PTX    0.0000
     91 H           2.2867    1.1785    3.6422 H         1     PTX    0.0000
     92 H           3.6801    0.7251    1.8156 H         1     PTX    0.0000
     93 H          -0.0145   -0.8618    1.6164 H         1     PTX    0.0000
     94 H          -1.1107    0.1884   -0.1102 H         1     PTX    0.0000
     95 H           0.1441   -0.0861   -1.2750 H         1     PTX    0.0000
     96 H          -2.5582   -0.5849   -1.8891 H         1     PTX    0.0000
     97 H          -1.7512   -2.3936    0.8854 H         1     PTX    0.0000
     98 H          -3.6785    1.0452    3.5386 H         1     PTX    0.0000
     99 H          -5.2309    2.8625    3.6813 H         1     PTX    0.0000
    100 H          -6.6117    3.4825    1.7639 H         1     PTX    0.0000
    101 H          -6.4079    2.2359   -0.3296 H         1     PTX    0.0000
    102 H          -4.8667    0.4119   -0.5199 H         1     PTX    0.0000
    103 H          -2.8548   -3.7635   -1.3946 H         1     PTX    0.0000
    104 H          -2.9519   -3.9483    2.4793 H         1     PTX    0.0000
    105 H          -2.0219   -5.4928    2.4581 H         1     PTX    0.0000
    106 H          -1.2516   -3.9724    2.0322 H         1     PTX    0.0000
    107 H           0.6986   -5.3841   -0.9416 H         1     PTX    0.0000
    108 H           0.5626   -6.8727    3.3415 H         1     PTX    0.0000
    109 H           1.5799   -8.2179    2.7033 H         1     PTX    0.0000
    110 H           2.2718   -6.5568    2.8223 H         1     PTX    0.0000
    111 H           0.6800   -3.4057    2.7583 H         1     PTX    0.0000
    112 H           2.1889   -3.8090    1.8098 H         1     PTX    0.0000
    113 H           1.9598   -2.2100    2.4743 H         1     PTX    0.0000
    114 H           0.8640   -1.5623   -3.0748 H         1     PTX    0.0000
    115 H           1.7295   -1.6228   -1.5149 H         1     PTX    0.0000
    116 H           1.7853   -3.0112   -2.5534 H         1     PTX    0.0000
    117 H          -0.8377   -3.1101   -3.6568 H         1     PTX    0.0000
    118 H           0.1185   -4.4695   -3.0153 H         1     PTX    0.0000
    119 H          -1.5781   -4.2982   -2.6241 H         1     PTX    0.0000
    120 H          -3.2803   -6.8891    0.5599 H         1     PTX    0.0000
    121 H          -5.4164   -5.9455    1.5279 H         1     PTX    0.0000
    122 H          -4.1813   -6.0029   -1.6274 H         1     PTX    0.0000
    123 H          -5.4560   -6.6693   -0.5689 H         1     PTX    0.0000
    124 H          -6.1363   -4.5052   -1.6531 H         1     PTX    0.0000
    125 H          -6.1261   -2.1605    0.6460 H         1     PTX    0.0000
    126 H          -4.9348   -3.1507    1.6058 H         1     PTX    0.0000
    127 H          -4.9397   -0.1419   -2.9610 H         1     PTX    0.0000
    128 H          -5.2770   -1.4980   -4.1147 H         1     PTX    0.0000
    129 H          -6.6133   -0.4176   -3.5663 H         1     PTX    0.0000
    130 H           5.1166    1.5843    0.0601 H         1     PTX    0.0000
    131 H           3.7511   -0.8555    0.0056 H         1     PTX    0.0000
    132 H           4.5836   -1.4474   -4.2834 H         1     PTX    0.0000
    133 H           5.5932   -0.3031   -6.1191 H         1     PTX    0.0000
    134 H           6.8691    1.7523   -5.7654 H         1     PTX    0.0000
    135 H           7.1461    2.6205   -3.4973 H         1     PTX    0.0000
    136 H           6.1987    1.4874   -1.6373 H         1     PTX    0.0000
    137 H           2.1993    0.6084   -2.0890 H         1     PTX    0.0000
    138 H           1.2769    2.0110   -3.8259 H         1     PTX    0.0000
    139 H           2.0468    4.3209   -4.0828 H         1     PTX    0.0000
    140 H           3.7534    5.2033   -2.5666 H         1     PTX    0.0000
    141 H           4.6806    3.7969   -0.8219 H         1     PTX    0.0000
@<TRIPOS>BOND
     1     1     2     1
     2     1    73     1
     3     1    74     1
     4     1    75     1
     5     2     3     1
     6     2    76     1
     7     2    77     1
     8     3     4     1
     9     3    78     1
    10     3    79     1
    11     4     5     1
    12     4    80     1
    13     4    81     1
    14     5     6     1
    15     5    82     1
    16     5    83     1
    17     6     7     1
    18     6    84     1
    19     6    85     1
    20     7     8     1
    21     8     9     1
    22     8    10     1
    23     8    11     1
    24     9    86     1
    25     9    87     1
    26     9    88     1
    27    10    89     1
    28    10    90     1
    29    10    91     1
    30    11    12     1
    31    12    13     1
    32    12    57     1
    33    12    92     1
    34    13    14     2
    35    13    15     1
    36    15    16     1
    37    16    17     1
    38    16    41     1
    39    16    93     1
    40    17    18     1
    41    17    94     1
    42    17    95     1
    43    18    19     1
    44    18    20     1
    45    18    43     1
    46    19    96     1
    47    20    21     1
    48    20    30     1
    49    20    97     1
    50    21    22     1
    51    22    23     2
    52    22    24     1
    53    24    25     1
    54    24    29     2
    55    25    26     2
    56    25    98     1
    57    26    27     1
    58    26    99     1
    59    27    28     2
    60    27   100     1
    61    28    29     1
    62    28   101     1
    63    29   102     1
    64    30    31     1
    65    30    52     1
    66    30   103     1
    67    31    32     1
    68    31    33     1
    69    31    46     1
    70    32   104     1
    71    32   105     1
    72    32   106     1
    73    33    34     2
    74    33    35     1
    75    35    36     1
    76    35    40     1
    77    35   107     1
    78    36    37     1
    79    37    38     1
    80    37    39     2
    81    38   108     1
    82    38   109     1
    83    38   110     1
    84    40    41     2
    85    40    43     1
    86    41    42     1
    87    42   111     1
    88    42   112     1
    89    42   113     1
    90    43    44     1
    91    43    45     1
    92    44   114     1
    93    44   115     1
    94    44   116     1
    95    45   117     1
    96    45   118     1
    97    45   119     1
    98    46    47     1
    99    46    48     1
   100    46   120     1
   101    47   121     1
   102    48    49     1
   103    48   122     1
   104    48   123     1
   105    49    50     1
   106    49    52     1
   107    49   124     1
   108    50    51     1
   109    51    52     1
   110    51   125     1
   111    51   126     1
   112    52    53     1
   113    53    54     1
   114    54    55     1
   115    54    56     2
   116    55   127     1
   117    55   128     1
   118    55   129     1
   119    57    58     1
   120    57    67     1
   121    57   130     1
   122    58    59     1
   123    58   131     1
   124    59    60     2
   125    59    61     1
   126    61    62     1
   127    61    66     2
   128    62    63     2
   129    62   132     1
   130    63    64     1
   131    63   133     1
   132    64    65     2
   133    64   134     1
   134    65    66     1
   135    65   135     1
   136    66   136     1
   137    67    68     1
   138    67    72     2
   139    68    69     2
   140    68   137     1
   141    69    70     1
   142    69   138     1
   143    70    71     2
   144    70   139     1
   145    71    72     1
   146    71   140     1
   147    72   141     1
