@<TRIPOS>MOLECULE
PTX
126 132 1 0 0
SMALL
USER_CHARGES


@<TRIPOS>ATOM
      1 O           2.0761    1.8758   -0.2146 O.2       1     PTX    0.0000
      2 C           2.3150    0.8305   -0.7757 C.2       1     PTX    0.0000
      3 C           3.5476    0.6250   -1.6675 C.3       1     PTX    0.0000
      4 O           4.6939    0.3595   -0.8830 O.3       1     PTX    0.0000
      5 C           5.2132   -0.9558   -0.9120 C.3       1     PTX    0.0000
      6 C           4.2036   -1.9819   -0.4113 C.3       1     PTX    0.0000
      7 C           6.4293   -0.9206    0.0124 C.3       1     PTX    0.0000
      8 O           5.5658   -1.1796   -2.2584 O.3       1     PTX    0.0000
      9 C           6.4867   -2.2193   -2.4938 C.3       1     PTX    0.0000
     10 C           3.8381    1.8899   -2.5100 C.3       1     PTX    0.0000
     11 C           2.6378    2.1681   -3.3996 C.ar      1     PTX    0.0000
     12 C           2.3629    1.3871   -4.4605 C.ar      1     PTX    0.0000
     13 C           1.3004    1.6301   -5.2433 C.ar      1     PTX    0.0000
     14 C           0.4877    2.6620   -4.9724 C.ar      1     PTX    0.0000
     15 C           0.7432    3.4452   -3.9142 C.ar      1     PTX    0.0000
     16 C           1.8076    3.1944   -3.1367 C.ar      1     PTX    0.0000
     17 N           5.0555    1.6237   -3.2911 N.am      1     PTX    0.0000
     18 C           5.4757    2.2253   -4.4461 C.2       1     PTX    0.0000
     19 C           4.9565    3.3863   -4.9421 C.ar      1     PTX    0.0000
     20 C           4.9372    3.5996   -6.2738 C.ar      1     PTX    0.0000
     21 C           4.4258    4.7270   -6.7935 C.ar      1     PTX    0.0000
     22 C           3.9350    5.6792   -5.9879 C.ar      1     PTX    0.0000
     23 C           3.9752    5.4981   -4.6605 C.ar      1     PTX    0.0000
     24 C           4.4868    4.3672   -4.1489 C.ar      1     PTX    0.0000
     25 O           6.2532    1.5640   -5.0950 O.2       1     PTX    0.0000
     26 O           1.5544   -0.2982   -0.7617 O.3       1     PTX    0.0000
     27 C           0.3154   -0.3928   -0.0941 C.3       1     PTX    0.0000
     28 C          -0.4778    0.8942    0.1114 C.2       1     PTX    0.0000
     29 C          -0.7775    1.6044   -1.1961 C.3       1     PTX    0.0000
     30 C          -0.9531    1.2373    1.3349 C.2       1     PTX    0.0000
     31 C          -2.0506    2.2658    1.5995 C.3       1     PTX    0.0000
     32 O          -2.4526    2.9804    0.4440 O.3       1     PTX    0.0000
     33 C          -3.0109    4.2173    0.5506 C.2       1     PTX    0.0000
     34 C          -3.3660    4.7299   -0.8317 C.3       1     PTX    0.0000
     35 O          -3.2002    4.8211    1.5814 O.2       1     PTX    0.0000
     36 C          -3.2953    1.6536    2.2998 C.2       1     PTX    0.0000
     37 O          -3.6806    2.2173    3.3035 O.2       1     PTX    0.0000
     38 C          -0.4019    0.4845    2.5512 C.3       1     PTX    0.0000
     39 C          -0.8601    0.9291    3.9710 C.3       1     PTX    0.0000
     40 C           1.1118    0.8459    2.6899 C.3       1     PTX    0.0000
     41 C          -0.6529   -1.0044    2.1855 C.3       1     PTX    0.0000
     42 C          -2.0598   -1.3860    1.6525 C.3       1     PTX    0.0000
     43 O          -2.1084   -2.7839    1.5134 O.3       1     PTX    0.0000
     44 C          -2.2416   -3.4314    0.3045 C.2       1     PTX    0.0000
     45 C          -2.3599   -4.7948    0.2747 C.ar      1     PTX    0.0000
     46 C          -2.5027   -5.4743   -0.8806 C.ar      1     PTX    0.0000
     47 C          -2.6193   -6.8121   -0.8838 C.ar      1     PTX    0.0000
     48 C          -2.5951   -7.4964    0.2690 C.ar      1     PTX    0.0000
     49 C          -2.4519   -6.8334    1.4254 C.ar      1     PTX    0.0000
     50 C          -2.3345   -5.4963    1.4250 C.ar      1     PTX    0.0000
     51 O          -2.2619   -2.7913   -0.7288 O.2       1     PTX    0.0000
     52 C          -3.2943   -0.8808    2.4431 C.3       1     PTX    0.0000
     53 C          -4.0418    0.3624    1.8326 C.3       1     PTX    0.0000
     54 C          -4.1227    0.3873    0.2887 C.3       1     PTX    0.0000
     55 C          -5.5115    0.4504    2.3399 C.3       1     PTX    0.0000
     56 O          -6.3997   -0.1850    1.4446 O.3       1     PTX    0.0000
     57 C          -5.7440   -0.1390    3.7272 C.3       1     PTX    0.0000
     58 C          -5.4124   -1.6185    3.7972 C.3       1     PTX    0.0000
     59 C          -4.1021   -2.0134    3.1106 C.3       1     PTX    0.0000
     60 O          -3.2708   -2.7402    3.9675 O.3       1     PTX    0.0000
     61 C          -3.6166   -3.8664    4.6492 C.2       1     PTX    0.0000
     62 C          -2.4233   -4.3375    5.4605 C.3       1     PTX    0.0000
     63 O          -4.6863   -4.4295    4.6346 O.2       1     PTX    0.0000
     64 C          -5.0398   -2.8213    2.2090 C.3       1     PTX    0.0000
     65 O          -6.1915   -2.3939    2.9154 O.3       1     PTX    0.0000
     66 O          -0.4181   -1.8102    3.3090 O.3       1     PTX    0.0000
     67 C           0.3882   -1.3607    1.1022 C.3       1     PTX    0.0000
     68 H           3.3492   -0.2131   -2.3713 H         1     PTX    0.0000
     69 H           4.6815   -2.9684   -0.2212 H         1     PTX    0.0000
     70 H           3.3835   -2.1710   -1.1381 H         1     PTX    0.0000
     71 H           3.7521   -1.6568    0.5533 H         1     PTX    0.0000
     72 H           6.8998   -1.9201    0.1456 H         1     PTX    0.0000
     73 H           7.2055   -0.2137   -0.3606 H         1     PTX    0.0000
     74 H           6.1359   -0.5774    1.0311 H         1     PTX    0.0000
     75 H           6.5341   -2.3831   -3.5937 H         1     PTX    0.0000
     76 H           7.5037   -1.9281   -2.1534 H         1     PTX    0.0000
     77 H           6.1514   -3.1633   -2.0136 H         1     PTX    0.0000
     78 H           4.0502    2.7178   -1.7958 H         1     PTX    0.0000
     79 H           3.0151    0.5315   -4.7012 H         1     PTX    0.0000
     80 H           1.0935    0.9799   -6.1098 H         1     PTX    0.0000
     81 H          -0.3872    2.8630   -5.6126 H         1     PTX    0.0000
     82 H           0.0763    4.2920   -3.6809 H         1     PTX    0.0000
     83 H           1.9949    3.8485   -2.2692 H         1     PTX    0.0000
     84 H           5.6095    0.8168   -3.0081 H         1     PTX    0.0000
     85 H           5.3159    2.8485   -6.9876 H         1     PTX    0.0000
     86 H           4.4059    4.8727   -7.8868 H         1     PTX    0.0000
     87 H           3.5185    6.6081   -6.4113 H         1     PTX    0.0000
     88 H           3.6013    6.2893   -3.9888 H         1     PTX    0.0000
     89 H           4.5412    4.3036   -3.0533 H         1     PTX    0.0000
     90 H          -0.3368   -0.9336   -0.8306 H         1     PTX    0.0000
     91 H          -1.8212    1.4604   -1.5445 H         1     PTX    0.0000
     92 H          -0.5393    2.6888   -1.1316 H         1     PTX    0.0000
     93 H          -0.1419    1.2268   -2.0263 H         1     PTX    0.0000
     94 H          -1.5682    3.0025    2.2844 H         1     PTX    0.0000
     95 H          -4.0921    4.0433   -1.3234 H         1     PTX    0.0000
     96 H          -3.8299    5.7401   -0.7719 H         1     PTX    0.0000
     97 H          -2.4519    4.8047   -1.4638 H         1     PTX    0.0000
     98 H          -0.3574    0.3305    4.7638 H         1     PTX    0.0000
     99 H          -0.6107    1.9940    4.1780 H         1     PTX    0.0000
    100 H          -1.9265    0.8579    4.2274 H         1     PTX    0.0000
    101 H           1.6006    0.2740    3.5113 H         1     PTX    0.0000
    102 H           1.7403    0.6670    1.8011 H         1     PTX    0.0000
    103 H           1.2580    1.9306    2.8972 H         1     PTX    0.0000
    104 H          -2.1401   -0.9429    0.6496 H         1     PTX    0.0000
    105 H          -2.5310   -4.9685   -1.8599 H         1     PTX    0.0000
    106 H          -2.7363   -7.3541   -1.8376 H         1     PTX    0.0000
    107 H          -2.6913   -8.5948    0.2663 H         1     PTX    0.0000
    108 H          -2.4300   -7.3898    2.3778 H         1     PTX    0.0000
    109 H          -2.2165   -5.0048    2.4040 H         1     PTX    0.0000
    110 H          -2.8826   -0.4872    3.3942 H         1     PTX    0.0000
    111 H          -4.4910   -0.5750   -0.1302 H         1     PTX    0.0000
    112 H          -4.7912    1.2030   -0.0700 H         1     PTX    0.0000
    113 H          -3.1587    0.5725   -0.2142 H         1     PTX    0.0000
    114 H          -5.8536    1.5141    2.3374 H         1     PTX    0.0000
    115 H          -7.0974   -0.6372    1.9238 H         1     PTX    0.0000
    116 H          -5.1211    0.3916    4.4836 H         1     PTX    0.0000
    117 H          -6.8072    0.0112    4.0319 H         1     PTX    0.0000
    118 H          -5.5372   -2.0072    4.8326 H         1     PTX    0.0000
    119 H          -1.5391   -4.4977    4.8025 H         1     PTX    0.0000
    120 H          -2.1640   -3.5820    6.2366 H         1     PTX    0.0000
    121 H          -2.6483   -5.2995    5.9736 H         1     PTX    0.0000
    122 H          -4.9386   -3.9249    2.2353 H         1     PTX    0.0000
    123 H          -5.0770   -2.4593    1.1605 H         1     PTX    0.0000
    124 H          -0.6147   -2.7242    3.0812 H         1     PTX    0.0000
    125 H           0.2747   -2.4126    0.7539 H         1     PTX    0.0000
    126 H           1.4094   -1.3877    1.5414 H         1     PTX    0.0000
@<TRIPOS>BOND
     1     1     2     2
     2     2     3     1
     3     2    26     1
     4     3     4     1
     5     3    10     1
     6     3    68     1
     7     4     5     1
     8     5     6     1
     9     5     7     1
    10     5     8     1
    11     6    69     1
    12     6    70     1
    13     6    71     1
    14     7    72     1
    15     7    73     1
    16     7    74     1
    17     8     9     1
    18     9    75     1
    19     9    76     1
    20     9    77     1
    21    10    11     1
    22    10    17     1
    23    10    78     1
    24    11    12     1
    25    11    16     2
    26    12    13     2
    27    12    79     1
    28    13    14     1
    29    13    80     1
    30    14    15     2
    31    14    81     1
    32    15    16     1
    33    15    82     1
    34    16    83     1
    35    17    18     1
    36    17    84     1
    37    18    19     1
    38    18    25     2
    39    19    20     1
    40    19    24     2
    41    20    21     2
    42    20    85     1
    43    21    22     1
    44    21    86     1
    45    22    23     2
    46    22    87     1
    47    23    24     1
    48    23    88     1
    49    24    89     1
    50    26    27     1
    51    27    28     1
    52    27    67     1
    53    27    90     1
    54    28    29     1
    55    28    30     2
    56    29    91     1
    57    29    92     1
    58    29    93     1
    59    30    31     1
    60    30    38     1
    61    31    32     1
    62    31    36     1
    63    31    94     1
    64    32    33     1
    65    33    34     1
    66    33    35     2
    67    34    95     1
    68    34    96     1
    69    34    97     1
    70    36    37     2
    71    36    53     1
    72    38    39     1
    73    38    40     1
    74    38    41     1
    75    39    98     1
    76    39    99     1
    77    39   100     1
    78    40   101     1
    79    40   102     1
    80    40   103     1
    81    41    42     1
    82    41    66     1
    83    41    67     1
    84    42    43     1
    85    42    52     1
    86    42   104     1
    87    43    44     1
    88    44    45     1
    89    44    51     2
    90    45    46     1
    91    45    50     2
    92    46    47     2
    93    46   105     1
    94    47    48     1
    95    47   106     1
    96    48    49     2
    97    48   107     1
    98    49    50     1
    99    49   108     1
   100    50   109     1
   101    52    53     1
   102    52    59     1
   103    52   110     1
   104    53    54     1
   105    53    55     1
   106    54   111     1
   107    54   112     1
   108    54   113     1
   109    55    56     1
   110    55    57     1
   111    55   114     1
   112    56   115     1
   113    57    58     1
   114    57   116     1
   115    57   117     1
   116    58    59     1
   117    58    65     1
   118    58   118     1
   119    59    60     1
   120    59    64     1
   121    60    61     1
   122    61    62     1
   123    61    63     2
   124    62   119     1
   125    62   120     1
   126    62   121     1
   127    64    65     1
   128    64   122     1
   129    64   123     1
   130    66   124     1
   131    67   125     1
   132    67   126     1
