@<TRIPOS>MOLECULE
PTX
128 134 1 0 0
SMALL
USER_CHARGES


@<TRIPOS>ATOM
      1 C           3.3438    2.7679   -5.1935 C.3       1     PTX    0.0000
      2 O           2.7394    3.9453   -4.7001 O.3       1     PTX    0.0000
      3 C           1.9388    3.7953   -3.5403 C.3       1     PTX    0.0000
      4 C           1.3959    5.1936   -3.2400 C.3       1     PTX    0.0000
      5 C           0.7963    2.8020   -3.7623 C.3       1     PTX    0.0000
      6 N          -0.0525    3.1785   -4.9204 N.2       1     PTX    0.0000
      7 N          -0.1687    2.2557   -5.7579 N.2       1     PTX    0.0000
      8 N          -0.7477    2.3858   -6.6311 N.1       1     PTX    0.0000
      9 O           2.8564    3.3954   -2.5460 O.3       1     PTX    0.0000
     10 C           2.3748    3.1780   -1.2367 C.3       1     PTX    0.0000
     11 C           1.7516    1.7871   -1.0422 C.2       1     PTX    0.0000
     12 O           2.1938    0.7756   -1.5378 O.2       1     PTX    0.0000
     13 O           0.6603    1.8950   -0.2339 O.3       1     PTX    0.0000
     14 C          -0.1496    0.8014    0.1404 C.3       1     PTX    0.0000
     15 C          -1.5451    0.8892   -0.5074 C.3       1     PTX    0.0000
     16 C          -2.1969   -0.5029   -0.6578 C.3       1     PTX    0.0000
     17 O          -3.3751   -0.3622   -1.4055 O.3       1     PTX    0.0000
     18 C          -2.6219   -0.9955    0.7512 C.3       1     PTX    0.0000
     19 O          -3.6425   -0.1486    1.2180 O.3       1     PTX    0.0000
     20 C          -3.5117    0.6855    2.3066 C.2       1     PTX    0.0000
     21 O          -2.4430    0.7726    2.8792 O.2       1     PTX    0.0000
     22 C          -4.5902    1.4060    2.7440 C.ar      1     PTX    0.0000
     23 C          -4.5157    2.2265    3.8108 C.ar      1     PTX    0.0000
     24 C          -5.5885    2.9214    4.2224 C.ar      1     PTX    0.0000
     25 C          -6.7570    2.8093    3.5744 C.ar      1     PTX    0.0000
     26 C          -6.8448    1.9985    2.5104 C.ar      1     PTX    0.0000
     27 C          -5.7702    1.3062    2.1010 C.ar      1     PTX    0.0000
     28 C          -3.0450   -2.4799    0.9007 C.3       1     PTX    0.0000
     29 C          -1.9673   -3.4453    1.5199 C.3       1     PTX    0.0000
     30 C          -1.1041   -2.8294    2.6452 C.3       1     PTX    0.0000
     31 C          -1.0132   -3.9047    0.3708 C.2       1     PTX    0.0000
     32 O          -1.2637   -4.9375   -0.2159 O.2       1     PTX    0.0000
     33 C           0.2298   -3.1145   -0.1235 C.3       1     PTX    0.0000
     34 O           1.3050   -3.3007    0.7802 O.3       1     PTX    0.0000
     35 C           2.0190   -4.4598    0.7803 C.2       1     PTX    0.0000
     36 C           3.0730   -4.4027    1.8689 C.3       1     PTX    0.0000
     37 O           1.8458   -5.3962    0.0346 O.2       1     PTX    0.0000
     38 C          -0.0812   -1.6487   -0.4205 C.2       1     PTX    0.0000
     39 C           0.4912   -0.5832    0.1952 C.2       1     PTX    0.0000
     40 C           1.6847   -0.6334    1.1295 C.3       1     PTX    0.0000
     41 C          -1.1827   -1.3729   -1.4500 C.3       1     PTX    0.0000
     42 C          -0.5236   -0.6223   -2.6498 C.3       1     PTX    0.0000
     43 C          -1.7778   -2.5690   -2.2490 C.3       1     PTX    0.0000
     44 C          -2.6242   -4.7180    2.1311 C.3       1     PTX    0.0000
     45 O          -2.8779   -4.5496    3.5099 O.3       1     PTX    0.0000
     46 C          -3.9272   -5.1470    1.4649 C.3       1     PTX    0.0000
     47 C          -5.0085   -4.0862    1.5588 C.3       1     PTX    0.0000
     48 O          -5.3457   -3.7674    2.8893 O.3       1     PTX    0.0000
     49 C          -4.9356   -2.4224    2.7136 C.3       1     PTX    0.0000
     50 C          -4.5358   -2.6620    1.2549 C.3       1     PTX    0.0000
     51 O          -5.3279   -2.0559    0.2756 O.3       1     PTX    0.0000
     52 C          -6.6831   -1.9339    0.3082 C.2       1     PTX    0.0000
     53 C          -7.1437   -1.2141   -0.9464 C.3       1     PTX    0.0000
     54 O          -7.4306   -2.3201    1.1763 O.2       1     PTX    0.0000
     55 C           3.5562    3.3764   -0.2577 C.3       1     PTX    0.0000
     56 N           3.1011    3.0207    1.0942 N.am      1     PTX    0.0000
     57 C           3.8518    2.8008    2.2194 C.2       1     PTX    0.0000
     58 O           3.2550    2.1926    3.0782 O.2       1     PTX    0.0000
     59 C           5.1890    3.0529    2.3414 C.ar      1     PTX    0.0000
     60 C           5.9327    2.3064    3.1846 C.ar      1     PTX    0.0000
     61 C           7.2523    2.5088    3.3269 C.ar      1     PTX    0.0000
     62 C           7.8641    3.4790    2.6340 C.ar      1     PTX    0.0000
     63 C           7.1390    4.2492    1.8115 C.ar      1     PTX    0.0000
     64 C           5.8199    4.0387    1.6758 C.ar      1     PTX    0.0000
     65 C           4.7612    2.5579   -0.6954 C.ar      1     PTX    0.0000
     66 C           4.9355    1.2772   -0.3205 C.ar      1     PTX    0.0000
     67 C           6.0060    0.5728   -0.7182 C.ar      1     PTX    0.0000
     68 C           6.9284    1.1418   -1.5078 C.ar      1     PTX    0.0000
     69 C           6.7695    2.4155   -1.8959 C.ar      1     PTX    0.0000
     70 C           5.6954    3.1107   -1.4918 C.ar      1     PTX    0.0000
     71 H           4.0110    3.0623   -6.0342 H         1     PTX    0.0000
     72 H           3.9679    2.2736   -4.4185 H         1     PTX    0.0000
     73 H           2.5840    2.0680   -5.5998 H         1     PTX    0.0000
     74 H           0.6158    5.1975   -2.4475 H         1     PTX    0.0000
     75 H           0.9181    5.6393   -4.1420 H         1     PTX    0.0000
     76 H           2.2100    5.8862   -2.9259 H         1     PTX    0.0000
     77 H           1.1925    1.7651   -3.8457 H         1     PTX    0.0000
     78 H           0.1263    2.8085   -2.8717 H         1     PTX    0.0000
     79 H           1.6102    3.9488   -0.9912 H         1     PTX    0.0000
     80 H          -0.3490    0.9891    1.2289 H         1     PTX    0.0000
     81 H          -2.1944    1.5846    0.0719 H         1     PTX    0.0000
     82 H          -1.5014    1.4032   -1.4927 H         1     PTX    0.0000
     83 H          -4.0186    0.1270   -0.8834 H         1     PTX    0.0000
     84 H          -1.7459   -0.8628    1.4024 H         1     PTX    0.0000
     85 H          -3.5842    2.3601    4.3854 H         1     PTX    0.0000
     86 H          -5.5120    3.5883    5.0980 H         1     PTX    0.0000
     87 H          -7.6379    3.3797    3.9128 H         1     PTX    0.0000
     88 H          -7.8025    1.9023    1.9712 H         1     PTX    0.0000
     89 H          -5.8994    0.6584    1.2194 H         1     PTX    0.0000
     90 H          -3.1509   -2.8515   -0.1382 H         1     PTX    0.0000
     91 H          -1.7210   -2.3294    3.4242 H         1     PTX    0.0000
     92 H          -0.4735   -3.6016    3.1422 H         1     PTX    0.0000
     93 H          -0.3906   -2.0610    2.3026 H         1     PTX    0.0000
     94 H           0.5588   -3.5235   -1.1079 H         1     PTX    0.0000
     95 H           2.5929   -4.2675    2.8648 H         1     PTX    0.0000
     96 H           3.6659   -5.3446    1.8951 H         1     PTX    0.0000
     97 H           3.7736   -3.5566    1.6854 H         1     PTX    0.0000
     98 H           1.4524   -1.0919    2.1131 H         1     PTX    0.0000
     99 H           2.5499   -1.1477    0.6568 H         1     PTX    0.0000
    100 H           2.0600    0.3842    1.3675 H         1     PTX    0.0000
    101 H          -1.2750   -0.2940   -3.4035 H         1     PTX    0.0000
    102 H           0.0428    0.2849   -2.3858 H         1     PTX    0.0000
    103 H           0.2305   -1.2535   -3.1729 H         1     PTX    0.0000
    104 H          -2.5261   -2.2221   -2.9969 H         1     PTX    0.0000
    105 H          -0.9983   -3.1214   -2.8204 H         1     PTX    0.0000
    106 H          -2.3066   -3.3605   -1.6996 H         1     PTX    0.0000
    107 H          -1.9039   -5.5718    2.0991 H         1     PTX    0.0000
    108 H          -3.7048   -4.9697    3.7557 H         1     PTX    0.0000
    109 H          -3.7569   -5.3725    0.3869 H         1     PTX    0.0000
    110 H          -4.3003   -6.0907    1.9297 H         1     PTX    0.0000
    111 H          -5.9268   -4.4034    1.0157 H         1     PTX    0.0000
    112 H          -5.7725   -1.7195    2.8989 H         1     PTX    0.0000
    113 H          -4.0795   -2.1926    3.3816 H         1     PTX    0.0000
    114 H          -6.6309   -0.2305   -1.0463 H         1     PTX    0.0000
    115 H          -6.9209   -1.8307   -1.8466 H         1     PTX    0.0000
    116 H          -8.2408   -1.0277   -0.9157 H         1     PTX    0.0000
    117 H           3.7742    4.4698   -0.2850 H         1     PTX    0.0000
    118 H           2.1201    2.7622    1.2078 H         1     PTX    0.0000
    119 H           5.4951    1.4822    3.7733 H         1     PTX    0.0000
    120 H           7.8392    1.8741    4.0124 H         1     PTX    0.0000
    121 H           8.9469    3.6510    2.7504 H         1     PTX    0.0000
    122 H           7.6286    5.0685    1.2581 H         1     PTX    0.0000
    123 H           5.2844    4.7424    1.0266 H         1     PTX    0.0000
    124 H           4.1976    0.7797    0.3269 H         1     PTX    0.0000
    125 H           6.1278   -0.4749   -0.3956 H         1     PTX    0.0000
    126 H           7.8095    0.5663   -1.8368 H         1     PTX    0.0000
    127 H           7.5221    2.8907   -2.5470 H         1     PTX    0.0000
    128 H           5.5854    4.1564   -1.8241 H         1     PTX    0.0000
@<TRIPOS>BOND
     1     1     2     1
     2     1    71     1
     3     1    72     1
     4     1    73     1
     5     2     3     1
     6     3     4     1
     7     3     5     1
     8     3     9     1
     9     4    74     1
    10     4    75     1
    11     4    76     1
    12     5     6     1
    13     5    77     1
    14     5    78     1
    15     6     7     2
    16     7     8     3
    17     9    10     1
    18    10    11     1
    19    10    55     1
    20    10    79     1
    21    11    12     2
    22    11    13     1
    23    13    14     1
    24    14    15     1
    25    14    39     1
    26    14    80     1
    27    15    16     1
    28    15    81     1
    29    15    82     1
    30    16    17     1
    31    16    18     1
    32    16    41     1
    33    17    83     1
    34    18    19     1
    35    18    28     1
    36    18    84     1
    37    19    20     1
    38    20    21     2
    39    20    22     1
    40    22    23     1
    41    22    27     2
    42    23    24     2
    43    23    85     1
    44    24    25     1
    45    24    86     1
    46    25    26     2
    47    25    87     1
    48    26    27     1
    49    26    88     1
    50    27    89     1
    51    28    29     1
    52    28    50     1
    53    28    90     1
    54    29    30     1
    55    29    31     1
    56    29    44     1
    57    30    91     1
    58    30    92     1
    59    30    93     1
    60    31    32     2
    61    31    33     1
    62    33    34     1
    63    33    38     1
    64    33    94     1
    65    34    35     1
    66    35    36     1
    67    35    37     2
    68    36    95     1
    69    36    96     1
    70    36    97     1
    71    38    39     2
    72    38    41     1
    73    39    40     1
    74    40    98     1
    75    40    99     1
    76    40   100     1
    77    41    42     1
    78    41    43     1
    79    42   101     1
    80    42   102     1
    81    42   103     1
    82    43   104     1
    83    43   105     1
    84    43   106     1
    85    44    45     1
    86    44    46     1
    87    44   107     1
    88    45   108     1
    89    46    47     1
    90    46   109     1
    91    46   110     1
    92    47    48     1
    93    47    50     1
    94    47   111     1
    95    48    49     1
    96    49    50     1
    97    49   112     1
    98    49   113     1
    99    50    51     1
   100    51    52     1
   101    52    53     1
   102    52    54     2
   103    53   114     1
   104    53   115     1
   105    53   116     1
   106    55    56     1
   107    55    65     1
   108    55   117     1
   109    56    57     1
   110    56   118     1
   111    57    58     2
   112    57    59     1
   113    59    60     1
   114    59    64     2
   115    60    61     2
   116    60   119     1
   117    61    62     1
   118    61   120     1
   119    62    63     2
   120    62   121     1
   121    63    64     1
   122    63   122     1
   123    64   123     1
   124    65    66     1
   125    65    70     2
   126    66    67     2
   127    66   124     1
   128    67    68     1
   129    67   125     1
   130    68    69     2
   131    68   126     1
   132    69    70     1
   133    69   127     1
   134    70   128     1
