@<TRIPOS>MOLECULE
****
142 148 1 0 0
SMALL
USER_CHARGES


@<TRIPOS>ATOM
      1 O          -2.8013   -1.4273   -3.3373 O.2       1     ****    0.0000
      2 C          -2.3683   -0.6998   -2.4718 C.2       1     ****    0.0000
      3 C          -1.3649   -1.1408   -1.3996 C.3       1     ****    0.0000
      4 O          -2.0912   -1.6434   -0.2940 O.3       1     ****    0.0000
      5 C          -2.0326   -3.0300   -0.0423 C.3       1     ****    0.0000
      6 C          -2.6860   -3.8121   -1.1766 C.3       1     ****    0.0000
      7 C          -2.8092   -3.2301    1.2523 C.3       1     ****    0.0000
      8 O          -0.6632   -3.3365    0.0862 O.3       1     ****    0.0000
      9 C          -0.3509   -4.5840    0.6498 C.3       1     ****    0.0000
     10 C          -0.4894    0.0165   -0.8741 C.3       1     ****    0.0000
     11 C           0.6818   -0.5176   -0.0684 C.ar      1     ****    0.0000
     12 C           1.8311   -0.8411   -0.6889 C.ar      1     ****    0.0000
     13 C           2.8806   -1.3199   -0.0034 C.ar      1     ****    0.0000
     14 C           2.7948   -1.4860    1.3246 C.ar      1     ****    0.0000
     15 C           1.6529   -1.1777    1.9569 C.ar      1     ****    0.0000
     16 C           0.6083   -0.6994    1.2635 C.ar      1     ****    0.0000
     17 N          -1.3499    0.8549   -0.0323 N.am      1     ****    0.0000
     18 C          -0.9745    2.0622    0.4813 C.2       1     ****    0.0000
     19 C          -1.8605    2.6173    1.3599 C.ar      1     ****    0.0000
     20 C          -2.9578    1.9642    1.7968 C.ar      1     ****    0.0000
     21 C          -3.7865    2.5273    2.6903 C.ar      1     ****    0.0000
     22 C          -3.5469    3.7613    3.1552 C.ar      1     ****    0.0000
     23 C          -2.4739    4.4318    2.7149 C.ar      1     ****    0.0000
     24 C          -1.6389    3.8602    1.8331 C.ar      1     ****    0.0000
     25 O           0.0640    2.5749    0.1348 O.2       1     ****    0.0000
     26 O          -2.7495    0.5895   -2.2628 O.3       1     ****    0.0000
     27 C          -3.8157    1.1179   -3.0248 C.3       1     ****    0.0000
     28 C          -3.8255    2.6733   -2.8549 C.2       1     ****    0.0000
     29 C          -2.4724    3.3023   -2.6220 C.3       1     ****    0.0000
     30 C          -4.9903    3.3353   -2.6202 C.2       1     ****    0.0000
     31 C          -5.0785    4.4575   -1.5734 C.3       1     ****    0.0000
     32 O          -4.6552    5.6292   -2.2736 O.3       1     ****    0.0000
     33 C          -4.1156    6.7312   -1.6729 C.2       1     ****    0.0000
     34 C          -3.7450    6.5827   -0.2068 C.3       1     ****    0.0000
     35 O          -3.8816    7.7542   -2.2829 O.2       1     ****    0.0000
     36 C          -6.4443    4.6669   -0.8111 C.2       1     ****    0.0000
     37 O          -6.9268    5.7484   -1.0923 O.2       1     ****    0.0000
     38 C          -6.2266    2.5345   -2.8886 C.3       1     ****    0.0000
     39 C          -7.5860    3.2689   -2.9421 C.3       1     ****    0.0000
     40 C          -6.2194    2.0889   -4.3933 C.3       1     ****    0.0000
     41 C          -5.9378    1.4834   -1.7725 C.3       1     ****    0.0000
     42 C          -7.1172    1.2857   -0.8112 C.3       1     ****    0.0000
     43 O          -7.1108   -0.0683   -0.4544 O.3       1     ****    0.0000
     44 C          -7.6349   -1.0020   -1.3359 C.2       1     ****    0.0000
     45 C          -7.3316   -2.3340   -1.2404 C.ar      1     ****    0.0000
     46 C          -6.4941   -2.7773   -0.2838 C.ar      1     ****    0.0000
     47 C          -6.2002   -4.0821   -0.1662 C.ar      1     ****    0.0000
     48 C          -6.7234   -4.9725   -1.0201 C.ar      1     ****    0.0000
     49 C          -7.5457   -4.5460   -1.9886 C.ar      1     ****    0.0000
     50 C          -7.8463   -3.2417   -2.0949 C.ar      1     ****    0.0000
     51 O          -8.3263   -0.6135   -2.2591 O.2       1     ****    0.0000
     52 C          -7.0578    2.2318    0.4560 C.3       1     ****    0.0000
     53 H          -6.0252    2.2280    0.8722 H         1     ****    0.0000
     54 C          -7.2473    3.8038    0.2764 C.3       1     ****    0.0000
     55 C          -8.7715    4.1185    0.1197 C.3       1     ****    0.0000
     56 C          -6.7927    4.4216    1.6280 C.3       1     ****    0.0000
     57 O          -6.8748    5.8281    1.6170 O.3       1     ****    0.0000
     58 C          -7.5277    3.9373    2.8777 C.3       1     ****    0.0000
     59 C          -8.0642    2.5164    2.8537 C.3       1     ****    0.0000
     60 C          -7.6734    1.5551    1.7150 C.3       1     ****    0.0000
     61 O          -6.8131    0.5984    2.2663 O.3       1     ****    0.0000
     62 C          -7.0956   -0.7238    2.4134 C.2       1     ****    0.0000
     63 C          -6.0042   -1.3713    3.2474 C.3       1     ****    0.0000
     64 O          -8.0396   -1.3270    1.9577 O.2       1     ****    0.0000
     65 C          -9.1842    1.2748    1.7449 C.3       1     ****    0.0000
     66 O          -9.4277    2.4399    2.5084 O.3       1     ****    0.0000
     67 O          -4.9179    1.7989   -0.8262 O.3       1     ****    0.0000
     68 C          -5.1335    0.4104   -2.5254 C.3       1     ****    0.0000
     69 O          -2.2196   -2.5037    2.3128 O.3       1     ****    0.0000
     70 C           1.1541   -4.8114    0.5045 C.3       1     ****    0.0000
     71 C           1.5947   -6.1637    1.0861 C.3       1     ****    0.0000
     72 C           3.1126   -6.3713    0.9572 C.3       1     ****    0.0000
     73 C           3.5605   -7.7210    1.5401 C.3       1     ****    0.0000
     74 C           5.0760   -7.9235    1.4105 C.3       1     ****    0.0000
     75 H          -0.7150   -1.9110   -1.8693 H         1     ****    0.0000
     76 H          -2.8886   -4.8676   -0.8893 H         1     ****    0.0000
     77 H          -2.0539   -3.8430   -2.0913 H         1     ****    0.0000
     78 H          -3.6683   -3.3668   -1.4536 H         1     ****    0.0000
     79 H          -2.8809   -4.2944    1.5617 H         1     ****    0.0000
     80 H          -3.8456   -2.8418    1.1485 H         1     ****    0.0000
     81 H          -0.6128   -4.5870    1.7314 H         1     ****    0.0000
     82 H          -0.9032   -5.3914    0.1204 H         1     ****    0.0000
     83 H          -0.1120    0.6179   -1.7352 H         1     ****    0.0000
     84 H           1.9179   -0.7164   -1.7810 H         1     ****    0.0000
     85 H           3.8129   -1.5813   -0.5315 H         1     ****    0.0000
     86 H           3.6531   -1.8839    1.8911 H         1     ****    0.0000
     87 H           1.5713   -1.3237    3.0470 H         1     ****    0.0000
     88 H          -0.3179   -0.4654    1.8126 H         1     ****    0.0000
     89 H          -2.2704    0.4773    0.1814 H         1     ****    0.0000
     90 H          -3.2210    0.9427    1.4799 H         1     ****    0.0000
     91 H          -4.6676    1.9734    3.0551 H         1     ****    0.0000
     92 H          -4.2264    4.2223    3.8910 H         1     ****    0.0000
     93 H          -2.2737    5.4503    3.0883 H         1     ****    0.0000
     94 H          -0.7667    4.4571    1.5179 H         1     ****    0.0000
     95 H          -3.5708    0.8919   -4.0879 H         1     ****    0.0000
     96 H          -1.7377    2.9172   -3.3644 H         1     ****    0.0000
     97 H          -2.1044    3.0743   -1.5999 H         1     ****    0.0000
     98 H          -2.4770    4.4058   -2.7386 H         1     ****    0.0000
     99 H          -4.3395    4.2347   -0.7722 H         1     ****    0.0000
    100 H          -3.3718    7.5508    0.1971 H         1     ****    0.0000
    101 H          -4.6105    6.2955    0.4244 H         1     ****    0.0000
    102 H          -2.9180    5.8477   -0.0836 H         1     ****    0.0000
    103 H          -8.3952    2.6378   -3.3747 H         1     ****    0.0000
    104 H          -7.5311    4.2060   -3.5423 H         1     ****    0.0000
    105 H          -8.0193    3.5552   -1.9832 H         1     ****    0.0000
    106 H          -7.0147    1.3375   -4.6053 H         1     ****    0.0000
    107 H          -6.3974    2.9533   -5.0738 H         1     ****    0.0000
    108 H          -5.2899    1.6751   -4.8193 H         1     ****    0.0000
    109 H          -8.1035    1.5065   -1.2652 H         1     ****    0.0000
    110 H          -6.0164   -2.0867    0.4273 H         1     ****    0.0000
    111 H          -5.5202   -4.4310    0.6282 H         1     ****    0.0000
    112 H          -6.4772   -6.0433   -0.9286 H         1     ****    0.0000
    113 H          -7.9786   -5.2734   -2.6963 H         1     ****    0.0000
    114 H          -8.5345   -2.9613   -2.9094 H         1     ****    0.0000
    115 H          -9.3494    3.2327   -0.2157 H         1     ****    0.0000
    116 H          -9.0441    4.9094   -0.6078 H         1     ****    0.0000
    117 H          -9.2481    4.4917    1.0476 H         1     ****    0.0000
    118 H          -5.7046    4.2080    1.7404 H         1     ****    0.0000
    119 H          -6.6578    6.1822    2.4820 H         1     ****    0.0000
    120 H          -8.3681    4.6230    3.1374 H         1     ****    0.0000
    121 H          -6.8209    4.0343    3.7378 H         1     ****    0.0000
    122 H          -7.9709    2.0507    3.8664 H         1     ****    0.0000
    123 H          -6.1220   -2.4783    3.2636 H         1     ****    0.0000
    124 H          -6.0497   -0.9988    4.2957 H         1     ****    0.0000
    125 H          -4.9995   -1.1424    2.8240 H         1     ****    0.0000
    126 H          -9.7013    1.3178    0.7654 H         1     ****    0.0000
    127 H          -9.5415    0.4228    2.3608 H         1     ****    0.0000
    128 H          -4.8883    1.1242   -0.1418 H         1     ****    0.0000
    129 H          -5.7049   -0.0755   -3.3438 H         1     ****    0.0000
    130 H          -4.8958   -0.4347   -1.8385 H         1     ****    0.0000
    131 H          -2.5897   -2.7938    3.1495 H         1     ****    0.0000
    132 H           1.7003   -3.9933    1.0298 H         1     ****    0.0000
    133 H           1.4355   -4.7595   -0.5745 H         1     ****    0.0000
    134 H           1.3046   -6.2154    2.1624 H         1     ****    0.0000
    135 H           1.0599   -6.9867    0.5552 H         1     ****    0.0000
    136 H           3.6453   -5.5458    1.4868 H         1     ****    0.0000
    137 H           3.4031   -6.3192   -0.1190 H         1     ****    0.0000
    138 H           3.2734   -7.7768    2.6175 H         1     ****    0.0000
    139 H           3.0325   -8.5503    1.0113 H         1     ****    0.0000
    140 H           5.3944   -7.9020    0.3432 H         1     ****    0.0000
    141 H           5.6355   -7.1270    1.9523 H         1     ****    0.0000
    142 H           5.3860   -8.9053    1.8369 H         1     ****    0.0000
@<TRIPOS>BOND
     1     1     2     2
     2     2     3     1
     3     2    26     1
     4     3     4     1
     5     3    10     1
     6     3    75     1
     7     4     5     1
     8     5     6     1
     9     5     7     1
    10     5     8     1
    11     6    76     1
    12     6    77     1
    13     6    78     1
    14     7    69     1
    15     7    79     1
    16     7    80     1
    17     8     9     1
    18     9    70     1
    19     9    81     1
    20     9    82     1
    21    10    11     1
    22    10    17     1
    23    10    83     1
    24    11    12     2
    25    11    16     1
    26    12    13     1
    27    12    84     1
    28    13    14     2
    29    13    85     1
    30    14    15     1
    31    14    86     1
    32    15    16     2
    33    15    87     1
    34    16    88     1
    35    17    18     1
    36    17    89     1
    37    18    19     1
    38    18    25     2
    39    19    20     2
    40    19    24     1
    41    20    21     1
    42    20    90     1
    43    21    22     2
    44    21    91     1
    45    22    23     1
    46    22    92     1
    47    23    24     2
    48    23    93     1
    49    24    94     1
    50    26    27     1
    51    27    28     1
    52    27    68     1
    53    27    95     1
    54    28    29     1
    55    28    30     2
    56    29    96     1
    57    29    97     1
    58    29    98     1
    59    30    31     1
    60    30    38     1
    61    31    32     1
    62    31    36     1
    63    31    99     1
    64    32    33     1
    65    33    34     1
    66    33    35     2
    67    34   100     1
    68    34   101     1
    69    34   102     1
    70    36    37     2
    71    36    54     1
    72    38    39     1
    73    38    40     1
    74    38    41     1
    75    39   103     1
    76    39   104     1
    77    39   105     1
    78    40   106     1
    79    40   107     1
    80    40   108     1
    81    41    42     1
    82    41    67     1
    83    41    68     1
    84    42    43     1
    85    42    52     1
    86    42   109     1
    87    43    44     1
    88    44    45     1
    89    44    51     2
    90    45    46     2
    91    45    50     1
    92    46    47     1
    93    46   110     1
    94    47    48     2
    95    47   111     1
    96    48    49     1
    97    48   112     1
    98    49    50     2
    99    49   113     1
   100    50   114     1
   101    52    53     1
   102    52    54     1
   103    52    60     1
   104    54    55     1
   105    54    56     1
   106    55   115     1
   107    55   116     1
   108    55   117     1
   109    56    57     1
   110    56    58     1
   111    56   118     1
   112    57   119     1
   113    58    59     1
   114    58   120     1
   115    58   121     1
   116    59    60     1
   117    59    66     1
   118    59   122     1
   119    60    61     1
   120    60    65     1
   121    61    62     1
   122    62    63     1
   123    62    64     2
   124    63   123     1
   125    63   124     1
   126    63   125     1
   127    65    66     1
   128    65   126     1
   129    65   127     1
   130    67   128     1
   131    68   129     1
   132    68   130     1
   133    69   131     1
   134    70    71     1
   135    70   132     1
   136    70   133     1
   137    71    72     1
   138    71   134     1
   139    71   135     1
   140    72    73     1
   141    72   136     1
   142    72   137     1
   143    73    74     1
   144    73   138     1
   145    73   139     1
   146    74   140     1
   147    74   141     1
   148    74   142     1
