@<TRIPOS>MOLECULE
****
140 147 1 0 0
SMALL
USER_CHARGES


@<TRIPOS>ATOM
      1 O          -2.1308   -1.4425   -3.3223 O.2       1     ****    0.0000
      2 C          -1.8588   -0.6933   -2.4111 C.2       1     ****    0.0000
      3 C          -0.8381   -1.0040   -1.3087 C.3       1     ****    0.0000
      4 O          -1.5117   -1.5535   -0.1926 O.3       1     ****    0.0000
      5 C          -1.4237   -2.9477    0.0189 C.3       1     ****    0.0000
      6 C          -2.1138   -3.6926   -1.1186 C.3       1     ****    0.0000
      7 C          -2.1712   -3.1760    1.3268 C.3       1     ****    0.0000
      8 O          -0.0403   -3.2285    0.0789 O.3       1     ****    0.0000
      9 C           0.4043   -4.3324    0.8192 C.3       1     ****    0.0000
     10 C          -0.1150    0.2615   -0.8013 C.3       1     ****    0.0000
     11 C           1.0902   -0.1004    0.0485 C.ar      1     ****    0.0000
     12 C           2.2973   -0.2527   -0.5256 C.ar      1     ****    0.0000
     13 C           3.3796   -0.5639    0.2042 C.ar      1     ****    0.0000
     14 C           3.2693   -0.7301    1.5305 C.ar      1     ****    0.0000
     15 C           2.0707   -0.5927    2.1165 C.ar      1     ****    0.0000
     16 C           0.9934   -0.2832    1.3787 C.ar      1     ****    0.0000
     17 N          -1.0887    1.0183   -0.0063 N.am      1     ****    0.0000
     18 C          -0.8664    2.2727    0.4831 C.2       1     ****    0.0000
     19 C          -1.8509    2.7558    1.2968 C.ar      1     ****    0.0000
     20 C          -2.8766    1.9919    1.7281 C.ar      1     ****    0.0000
     21 C          -3.8109    2.4914    2.5525 C.ar      1     ****    0.0000
     22 C          -3.7496    3.7693    2.9520 C.ar      1     ****    0.0000
     23 C          -2.7492    4.5467    2.5164 C.ar      1     ****    0.0000
     24 C          -1.8085    4.0404    1.7040 C.ar      1     ****    0.0000
     25 O           0.1232    2.8860    0.1576 O.2       1     ****    0.0000
     26 O          -2.4504    0.5108   -2.1813 O.3       1     ****    0.0000
     27 C          -3.5396    0.9047   -2.9925 C.3       1     ****    0.0000
     28 C          -3.7474    2.4510   -2.8298 C.2       1     ****    0.0000
     29 C          -2.4903    3.2457   -2.5748 C.3       1     ****    0.0000
     30 C          -4.9880    2.9727   -2.6309 C.2       1     ****    0.0000
     31 C          -5.2362    3.9997   -1.5107 C.3       1     ****    0.0000
     32 O          -4.7909    5.2796   -1.9604 O.3       1     ****    0.0000
     33 C          -4.7748    6.2860   -1.0349 C.2       1     ****    0.0000
     34 C          -4.2929    7.5724   -1.6723 C.3       1     ****    0.0000
     35 O          -5.1021    6.1581    0.1235 O.2       1     ****    0.0000
     36 C          -6.6804    4.0631   -0.9088 C.2       1     ****    0.0000
     37 O          -7.2614    5.0769   -1.2440 O.2       1     ****    0.0000
     38 C          -6.0965    2.0091   -2.9395 C.3       1     ****    0.0000
     39 C          -7.5443    2.5401   -3.0574 C.3       1     ****    0.0000
     40 C          -5.9687    1.5924   -4.4504 C.3       1     ****    0.0000
     41 C          -5.7320    0.9828   -1.8192 C.3       1     ****    0.0000
     42 C          -6.9044    0.6564   -0.8773 C.3       1     ****    0.0000
     43 O          -6.7242   -0.6737   -0.4771 O.3       1     ****    0.0000
     44 C          -7.0752   -1.6927   -1.3502 C.2       1     ****    0.0000
     45 C          -6.6224   -2.9740   -1.1826 C.ar      1     ****    0.0000
     46 C          -5.8005   -3.2786   -0.1608 C.ar      1     ****    0.0000
     47 C          -5.3604   -4.5323    0.0309 C.ar      1     ****    0.0000
     48 C          -5.7173   -5.5091   -0.8142 C.ar      1     ****    0.0000
     49 C          -6.5207   -5.2201   -1.8474 C.ar      1     ****    0.0000
     50 C          -6.9685   -3.9670   -2.0270 C.ar      1     ****    0.0000
     51 O          -7.7488   -1.4224   -2.3272 O.2       1     ****    0.0000
     52 C          -7.0156    1.6330    0.3705 C.3       1     ****    0.0000
     53 H          -6.0030    1.8003    0.8021 H         1     ****    0.0000
     54 C          -7.4313    3.1460    0.1446 C.3       1     ****    0.0000
     55 C          -8.9729    3.2494   -0.0864 C.3       1     ****    0.0000
     56 C          -7.1174    3.9009    1.4620 C.3       1     ****    0.0000
     57 O          -7.4268    5.2765    1.3575 O.3       1     ****    0.0000
     58 C          -7.8019    3.3554    2.7152 C.3       1     ****    0.0000
     59 C          -8.1195    1.8682    2.7316 C.3       1     ****    0.0000
     60 C          -7.5659    0.9278    1.6411 C.3       1     ****    0.0000
     61 O          -6.5977    0.1204    2.2477 O.3       1     ****    0.0000
     62 C          -6.7048   -1.2209    2.4426 C.2       1     ****    0.0000
     63 C          -5.5676   -1.6823    3.3370 C.3       1     ****    0.0000
     64 O          -7.5415   -1.9638    1.9839 O.2       1     ****    0.0000
     65 C          -9.0234    0.4410    1.6447 C.3       1     ****    0.0000
     66 O          -9.4491    1.5811    2.3644 O.3       1     ****    0.0000
     67 O          -4.7809    1.3845   -0.8383 O.3       1     ****    0.0000
     68 C          -4.7788    0.0267   -2.5564 C.3       1     ****    0.0000
     69 O          -1.6082   -2.4132    2.3765 O.3       1     ****    0.0000
     70 C           0.0097   -5.6748    0.1886 C.3       1     ****    0.0000
     71 C           0.9994   -6.8108    0.5097 C.3       1     ****    0.0000
     72 C           1.6507   -6.5941    1.8794 C.3       1     ****    0.0000
     73 C           2.4951   -5.3088    1.8684 C.3       1     ****    0.0000
     74 C           1.9314   -4.2530    0.9012 C.3       1     ****    0.0000
     75 H          -0.0908   -1.7054   -1.7400 H         1     ****    0.0000
     76 H          -2.3598   -4.7409   -0.8450 H         1     ****    0.0000
     77 H          -1.4898   -3.7328   -2.0384 H         1     ****    0.0000
     78 H          -3.0838   -3.2133   -1.3820 H         1     ****    0.0000
     79 H          -2.2005   -4.2385    1.6455 H         1     ****    0.0000
     80 H          -3.2249   -2.8336    1.2323 H         1     ****    0.0000
     81 H           0.0466   -4.2535    1.8701 H         1     ****    0.0000
     82 H           0.2069    0.8777   -1.6746 H         1     ****    0.0000
     83 H           2.4071   -0.1205   -1.6148 H         1     ****    0.0000
     84 H           4.3604   -0.6839   -0.2857 H         1     ****    0.0000
     85 H           4.1557   -0.9877    2.1336 H         1     ****    0.0000
     86 H           1.9708   -0.7385    3.2052 H         1     ****    0.0000
     87 H           0.0231   -0.1816    1.8905 H         1     ****    0.0000
     88 H          -1.9756    0.5528    0.1764 H         1     ****    0.0000
     89 H          -2.9928    0.9293    1.4620 H         1     ****    0.0000
     90 H          -4.6314    1.8493    2.9144 H         1     ****    0.0000
     91 H          -4.5151    4.1785    3.6320 H         1     ****    0.0000
     92 H          -2.6964    5.6010    2.8368 H         1     ****    0.0000
     93 H          -1.0044    4.7254    1.3869 H         1     ****    0.0000
     94 H          -3.2209    0.7175   -4.0434 H         1     ****    0.0000
     95 H          -1.6650    2.8924   -3.2329 H         1     ****    0.0000
     96 H          -2.1743    3.1516   -1.5154 H         1     ****    0.0000
     97 H          -2.6160    4.3244   -2.8057 H         1     ****    0.0000
     98 H          -4.5819    3.7532   -0.6407 H         1     ****    0.0000
     99 H          -4.2682    8.3965   -0.9242 H         1     ****    0.0000
    100 H          -4.9763    7.8738   -2.4982 H         1     ****    0.0000
    101 H          -3.2642    7.4412   -2.0781 H         1     ****    0.0000
    102 H          -8.2346    1.8008   -3.5236 H         1     ****    0.0000
    103 H          -8.0604    2.7511   -2.1211 H         1     ****    0.0000
    104 H          -7.6007    3.4800   -3.6528 H         1     ****    0.0000
    105 H          -6.2290    2.4376   -5.1286 H         1     ****    0.0000
    106 H          -4.9773    1.3121   -4.8441 H         1     ****    0.0000
    107 H          -6.6474    0.7473   -4.7092 H         1     ****    0.0000
    108 H          -7.8971    0.7250   -1.3658 H         1     ****    0.0000
    109 H          -5.4540   -2.5094    0.5448 H         1     ****    0.0000
    110 H          -4.6948   -4.7649    0.8785 H         1     ****    0.0000
    111 H          -5.3502   -6.5377   -0.6632 H         1     ****    0.0000
    112 H          -6.8165   -6.0192   -2.5483 H         1     ****    0.0000
    113 H          -7.6316   -3.8009   -2.8921 H         1     ****    0.0000
    114 H          -9.3081    4.0068   -0.8243 H         1     ****    0.0000
    115 H          -9.4101    2.2933   -0.4426 H         1     ****    0.0000
    116 H          -9.5403    3.5480    0.8170 H         1     ****    0.0000
    117 H          -6.0142    3.8670    1.6137 H         1     ****    0.0000
    118 H          -6.9268    5.6914    0.6402 H         1     ****    0.0000
    119 H          -8.7420    3.9157    2.9297 H         1     ****    0.0000
    120 H          -7.1394    3.5866    3.5849 H         1     ****    0.0000
    121 H          -7.9852    1.4579    3.7634 H         1     ****    0.0000
    122 H          -5.5380   -2.7936    3.3985 H         1     ****    0.0000
    123 H          -5.6996   -1.2779    4.3660 H         1     ****    0.0000
    124 H          -4.5877   -1.3379    2.9339 H         1     ****    0.0000
    125 H          -9.5120    0.3863    0.6511 H         1     ****    0.0000
    126 H          -9.2790   -0.4346    2.2776 H         1     ****    0.0000
    127 H          -4.7116    0.7151   -0.1518 H         1     ****    0.0000
    128 H          -5.2575   -0.5072   -3.4034 H         1     ****    0.0000
    129 H          -4.4613   -0.7999   -1.8792 H         1     ****    0.0000
    130 H          -1.9509   -2.7163    3.2202 H         1     ****    0.0000
    131 H          -0.0539   -5.5857   -0.9217 H         1     ****    0.0000
    132 H          -0.9998   -5.9666    0.5628 H         1     ****    0.0000
    133 H           1.8060   -6.8523   -0.2611 H         1     ****    0.0000
    134 H           0.4770   -7.7965    0.4736 H         1     ****    0.0000
    135 H           2.2845   -7.4680    2.1616 H         1     ****    0.0000
    136 H           0.8433   -6.5215    2.6469 H         1     ****    0.0000
    137 H           3.5465   -5.5402    1.5723 H         1     ****    0.0000
    138 H           2.5386   -4.8979    2.9057 H         1     ****    0.0000
    139 H           2.2584   -3.2414    1.2344 H         1     ****    0.0000
    140 H           2.3525   -4.3965   -0.1225 H         1     ****    0.0000
@<TRIPOS>BOND
     1     1     2     2
     2     2     3     1
     3     2    26     1
     4     3     4     1
     5     3    10     1
     6     3    75     1
     7     4     5     1
     8     5     6     1
     9     5     7     1
    10     5     8     1
    11     6    76     1
    12     6    77     1
    13     6    78     1
    14     7    69     1
    15     7    79     1
    16     7    80     1
    17     8     9     1
    18     9    70     1
    19     9    74     1
    20     9    81     1
    21    10    11     1
    22    10    17     1
    23    10    82     1
    24    11    12     2
    25    11    16     1
    26    12    13     1
    27    12    83     1
    28    13    14     2
    29    13    84     1
    30    14    15     1
    31    14    85     1
    32    15    16     2
    33    15    86     1
    34    16    87     1
    35    17    18     1
    36    17    88     1
    37    18    19     1
    38    18    25     2
    39    19    20     2
    40    19    24     1
    41    20    21     1
    42    20    89     1
    43    21    22     2
    44    21    90     1
    45    22    23     1
    46    22    91     1
    47    23    24     2
    48    23    92     1
    49    24    93     1
    50    26    27     1
    51    27    28     1
    52    27    68     1
    53    27    94     1
    54    28    29     1
    55    28    30     2
    56    29    95     1
    57    29    96     1
    58    29    97     1
    59    30    31     1
    60    30    38     1
    61    31    32     1
    62    31    36     1
    63    31    98     1
    64    32    33     1
    65    33    34     1
    66    33    35     2
    67    34    99     1
    68    34   100     1
    69    34   101     1
    70    36    37     2
    71    36    54     1
    72    38    39     1
    73    38    40     1
    74    38    41     1
    75    39   102     1
    76    39   103     1
    77    39   104     1
    78    40   105     1
    79    40   106     1
    80    40   107     1
    81    41    42     1
    82    41    67     1
    83    41    68     1
    84    42    43     1
    85    42    52     1
    86    42   108     1
    87    43    44     1
    88    44    45     1
    89    44    51     2
    90    45    46     2
    91    45    50     1
    92    46    47     1
    93    46   109     1
    94    47    48     2
    95    47   110     1
    96    48    49     1
    97    48   111     1
    98    49    50     2
    99    49   112     1
   100    50   113     1
   101    52    53     1
   102    52    54     1
   103    52    60     1
   104    54    55     1
   105    54    56     1
   106    55   114     1
   107    55   115     1
   108    55   116     1
   109    56    57     1
   110    56    58     1
   111    56   117     1
   112    57   118     1
   113    58    59     1
   114    58   119     1
   115    58   120     1
   116    59    60     1
   117    59    66     1
   118    59   121     1
   119    60    61     1
   120    60    65     1
   121    61    62     1
   122    62    63     1
   123    62    64     2
   124    63   122     1
   125    63   123     1
   126    63   124     1
   127    65    66     1
   128    65   125     1
   129    65   126     1
   130    67   127     1
   131    68   128     1
   132    68   129     1
   133    69   130     1
   134    70    71     1
   135    70   131     1
   136    70   132     1
   137    71    72     1
   138    71   133     1
   139    71   134     1
   140    72    73     1
   141    72   135     1
   142    72   136     1
   143    73    74     1
   144    73   137     1
   145    73   138     1
   146    74   139     1
   147    74   140     1
