@<TRIPOS>MOLECULE
****
127 133 1 0 0
SMALL
USER_CHARGES


@<TRIPOS>ATOM
      1 O          -1.6862   -2.0659   -3.0079 O.2       1     ****    0.0000
      2 C          -1.4474   -1.2216   -2.1735 C.2       1     ****    0.0000
      3 C          -0.4465   -1.4080   -1.0276 C.3       1     ****    0.0000
      4 O          -1.1294   -2.0100    0.0556 O.3       1     ****    0.0000
      5 C          -0.7698   -3.3267    0.4109 C.3       1     ****    0.0000
      6 C          -1.1474   -4.3056   -0.6957 C.3       1     ****    0.0000
      7 C          -1.5698   -3.6245    1.6725 C.3       1     ****    0.0000
      8 O           0.6222   -3.3062    0.6294 O.3       1     ****    0.0000
      9 C           1.1535   -4.3765    1.3753 C.3       1     ****    0.0000
     10 C           0.1486   -0.0819   -0.5071 C.3       1     ****    0.0000
     11 C           1.3434   -0.3558    0.3892 C.ar      1     ****    0.0000
     12 C           2.5635   -0.5203   -0.1536 C.ar      1     ****    0.0000
     13 C           3.6338   -0.7877    0.6102 C.ar      1     ****    0.0000
     14 C           3.4979   -0.8988    1.9398 C.ar      1     ****    0.0000
     15 C           2.2880   -0.7406    2.4963 C.ar      1     ****    0.0000
     16 C           1.2232   -0.4717    1.7252 C.ar      1     ****    0.0000
     17 N          -0.9097    0.5995    0.2461 N.am      1     ****    0.0000
     18 C          -0.8241    1.8874    0.6889 C.2       1     ****    0.0000
     19 C          -1.8471    2.2916    1.4984 C.ar      1     ****    0.0000
     20 C          -2.8100    1.4503    1.9304 C.ar      1     ****    0.0000
     21 C          -3.7785    1.8752    2.7572 C.ar      1     ****    0.0000
     22 C          -3.8167    3.1535    3.1583 C.ar      1     ****    0.0000
     23 C          -2.8819    4.0071    2.7200 C.ar      1     ****    0.0000
     24 C          -1.9063    3.5756    1.9055 C.ar      1     ****    0.0000
     25 O           0.0997    2.5884    0.3471 O.2       1     ****    0.0000
     26 O          -2.0723   -0.0179   -2.0686 O.3       1     ****    0.0000
     27 C          -3.1763    0.2527   -2.9081 C.3       1     ****    0.0000
     28 C          -3.5007    1.7812   -2.8253 C.2       1     ****    0.0000
     29 C          -2.3125    2.6758   -2.5638 C.3       1     ****    0.0000
     30 C          -4.7840    2.2085   -2.6823 C.2       1     ****    0.0000
     31 C          -5.1501    3.3353   -1.7026 C.3       1     ****    0.0000
     32 O          -4.9266    4.5360   -2.4448 O.3       1     ****    0.0000
     33 C          -4.6494    5.7487   -1.8801 C.2       1     ****    0.0000
     34 C          -4.3407    5.7416   -0.3923 C.3       1     ****    0.0000
     35 O          -4.5871    6.7701   -2.5331 O.2       1     ****    0.0000
     36 C          -6.5712    3.3021   -1.0167 C.2       1     ****    0.0000
     37 O          -7.2390    4.2540   -1.3764 O.2       1     ****    0.0000
     38 C          -5.8223    1.1675   -2.9650 C.3       1     ****    0.0000
     39 C          -7.2934    1.6156   -3.1234 C.3       1     ****    0.0000
     40 C          -5.6416    0.6652   -4.4407 C.3       1     ****    0.0000
     41 C          -5.3980    0.2452   -1.7805 C.3       1     ****    0.0000
     42 C          -6.5690   -0.1415   -0.8680 C.3       1     ****    0.0000
     43 O          -6.3191   -1.4514   -0.4410 O.3       1     ****    0.0000
     44 C          -6.6027   -2.5064   -1.2954 C.2       1     ****    0.0000
     45 C          -6.0515   -3.7474   -1.1178 C.ar      1     ****    0.0000
     46 C          -5.1959   -3.9771   -0.1037 C.ar      1     ****    0.0000
     47 C          -4.6614   -5.1929    0.0935 C.ar      1     ****    0.0000
     48 C          -4.9558   -6.2037   -0.7355 C.ar      1     ****    0.0000
     49 C          -5.7922   -5.9879   -1.7601 C.ar      1     ****    0.0000
     50 C          -6.3338   -4.7735   -1.9464 C.ar      1     ****    0.0000
     51 O          -7.3058   -2.3011   -2.2674 O.2       1     ****    0.0000
     52 C          -6.7683    0.8503    0.3486 C.3       1     ****    0.0000
     53 H          -5.7807    1.0687    0.8142 H         1     ****    0.0000
     54 C          -7.2509    2.3443    0.0760 C.3       1     ****    0.0000
     55 C          -8.7955    2.3432   -0.1705 C.3       1     ****    0.0000
     56 C          -7.0048    3.0969    1.4132 C.3       1     ****    0.0000
     57 O          -7.3588    4.4577    1.3236 O.3       1     ****    0.0000
     58 C          -7.7029    2.5306    2.6496 C.3       1     ****    0.0000
     59 C          -7.9474    1.0315    2.6763 C.3       1     ****    0.0000
     60 C          -7.3112    0.1191    1.6104 C.3       1     ****    0.0000
     61 O          -6.3134   -0.6242    2.2520 O.3       1     ****    0.0000
     62 C          -6.3380   -1.9691    2.4526 C.2       1     ****    0.0000
     63 C          -5.1876   -2.3519    3.3669 C.3       1     ****    0.0000
     64 O          -7.1183   -2.7661    1.9852 O.2       1     ****    0.0000
     65 C          -8.7369   -0.4540    1.5826 C.3       1     ****    0.0000
     66 O          -9.2474    0.6708    2.2711 O.3       1     ****    0.0000
     67 O          -4.5165    0.7990   -0.8052 O.3       1     ****    0.0000
     68 C          -4.3570   -0.6790   -2.4338 C.3       1     ****    0.0000
     69 O          -1.2565   -2.7035    2.6991 O.3       1     ****    0.0000
     70 H           0.3690   -2.0501   -1.4262 H         1     ****    0.0000
     71 H          -1.0956   -5.3608   -0.3470 H         1     ****    0.0000
     72 H          -0.4793   -4.2264   -1.5815 H         1     ****    0.0000
     73 H          -2.1917   -4.1333   -1.0418 H         1     ****    0.0000
     74 H          -1.4058   -4.6498    2.0665 H         1     ****    0.0000
     75 H          -2.6585   -3.5121    1.4786 H         1     ****    0.0000
     76 H           2.2628   -4.3107    1.3110 H         1     ****    0.0000
     77 H           0.8761   -4.2869    2.4473 H         1     ****    0.0000
     78 H           0.8341   -5.3529    0.9526 H         1     ****    0.0000
     79 H           0.4616    0.5503   -1.3719 H         1     ****    0.0000
     80 H           2.6915   -0.4443   -1.2462 H         1     ****    0.0000
     81 H           4.6245   -0.9231    0.1448 H         1     ****    0.0000
     82 H           4.3736   -1.1247    2.5705 H         1     ****    0.0000
     83 H           2.1675   -0.8399    3.5881 H         1     ****    0.0000
     84 H           0.2419   -0.3633    2.2142 H         1     ****    0.0000
     85 H          -1.7313    0.0414    0.4663 H         1     ****    0.0000
     86 H          -2.8465    0.3824    1.6630 H         1     ****    0.0000
     87 H          -4.5468    1.1717    3.1192 H         1     ****    0.0000
     88 H          -4.6108    3.5014    3.8394 H         1     ****    0.0000
     89 H          -2.9109    5.0623    3.0401 H         1     ****    0.0000
     90 H          -1.1589    4.3226    1.5896 H         1     ****    0.0000
     91 H          -2.8307    0.0310   -3.9438 H         1     ****    0.0000
     92 H          -1.4767    2.4132   -3.2505 H         1     ****    0.0000
     93 H          -1.9639    2.5686   -1.5154 H         1     ****    0.0000
     94 H          -2.5271    3.7505   -2.7378 H         1     ****    0.0000
     95 H          -4.4279    3.2996   -0.8572 H         1     ****    0.0000
     96 H          -4.1893    6.7814   -0.0244 H         1     ****    0.0000
     97 H          -5.1669    5.3151    0.2123 H         1     ****    0.0000
     98 H          -3.3933    5.1927   -0.1908 H         1     ****    0.0000
     99 H          -7.9378    0.8182   -3.5584 H         1     ****    0.0000
    100 H          -7.3878    2.5172   -3.7712 H         1     ****    0.0000
    101 H          -7.8286    1.8537   -2.2034 H         1     ****    0.0000
    102 H          -6.2611   -0.2375   -4.6483 H         1     ****    0.0000
    103 H          -5.9455    1.4459   -5.1756 H         1     ****    0.0000
    104 H          -4.6260    0.4250   -4.7982 H         1     ****    0.0000
    105 H          -7.5517   -0.1385   -1.3798 H         1     ****    0.0000
    106 H          -4.8996   -3.1772    0.5915 H         1     ****    0.0000
    107 H          -3.9702   -5.3688    0.9340 H         1     ****    0.0000
    108 H          -4.5121   -7.2007   -0.5781 H         1     ****    0.0000
    109 H          -6.0376   -6.8151   -2.4477 H         1     ****    0.0000
    110 H          -7.0191   -4.6683   -2.8038 H         1     ****    0.0000
    111 H          -9.1683    1.3471   -0.4869 H         1     ****    0.0000
    112 H          -9.1755    3.0335   -0.9504 H         1     ****    0.0000
    113 H          -9.3890    2.6523    0.7125 H         1     ****    0.0000
    114 H          -5.9043    3.1076    1.5892 H         1     ****    0.0000
    115 H          -7.2641    4.8843    2.1779 H         1     ****    0.0000
    116 H          -8.6753    3.0459    2.8300 H         1     ****    0.0000
    117 H          -7.0814    2.8038    3.5371 H         1     ****    0.0000
    118 H          -7.8224    0.6377    3.7157 H         1     ****    0.0000
    119 H          -5.0885   -3.4586    3.4372 H         1     ****    0.0000
    120 H          -5.3602   -1.9500    4.3908 H         1     ****    0.0000
    121 H          -4.2257   -1.9484    2.9759 H         1     ****    0.0000
    122 H          -9.1953   -0.5557    0.5786 H         1     ****    0.0000
    123 H          -8.9550   -1.3332    2.2248 H         1     ****    0.0000
    124 H          -4.3929    0.1737   -0.0853 H         1     ****    0.0000
    125 H          -4.7740   -1.3049   -3.2502 H         1     ****    0.0000
    126 H          -3.9997   -1.4280   -1.6896 H         1     ****    0.0000
    127 H          -1.5995   -3.0227    3.5367 H         1     ****    0.0000
@<TRIPOS>BOND
     1     1     2     2
     2     2     3     1
     3     2    26     1
     4     3     4     1
     5     3    10     1
     6     3    70     1
     7     4     5     1
     8     5     6     1
     9     5     7     1
    10     5     8     1
    11     6    71     1
    12     6    72     1
    13     6    73     1
    14     7    69     1
    15     7    74     1
    16     7    75     1
    17     8     9     1
    18     9    76     1
    19     9    77     1
    20     9    78     1
    21    10    11     1
    22    10    17     1
    23    10    79     1
    24    11    12     2
    25    11    16     1
    26    12    13     1
    27    12    80     1
    28    13    14     2
    29    13    81     1
    30    14    15     1
    31    14    82     1
    32    15    16     2
    33    15    83     1
    34    16    84     1
    35    17    18     1
    36    17    85     1
    37    18    19     1
    38    18    25     2
    39    19    20     2
    40    19    24     1
    41    20    21     1
    42    20    86     1
    43    21    22     2
    44    21    87     1
    45    22    23     1
    46    22    88     1
    47    23    24     2
    48    23    89     1
    49    24    90     1
    50    26    27     1
    51    27    28     1
    52    27    68     1
    53    27    91     1
    54    28    29     1
    55    28    30     2
    56    29    92     1
    57    29    93     1
    58    29    94     1
    59    30    31     1
    60    30    38     1
    61    31    32     1
    62    31    36     1
    63    31    95     1
    64    32    33     1
    65    33    34     1
    66    33    35     2
    67    34    96     1
    68    34    97     1
    69    34    98     1
    70    36    37     2
    71    36    54     1
    72    38    39     1
    73    38    40     1
    74    38    41     1
    75    39    99     1
    76    39   100     1
    77    39   101     1
    78    40   102     1
    79    40   103     1
    80    40   104     1
    81    41    42     1
    82    41    67     1
    83    41    68     1
    84    42    43     1
    85    42    52     1
    86    42   105     1
    87    43    44     1
    88    44    45     1
    89    44    51     2
    90    45    46     2
    91    45    50     1
    92    46    47     1
    93    46   106     1
    94    47    48     2
    95    47   107     1
    96    48    49     1
    97    48   108     1
    98    49    50     2
    99    49   109     1
   100    50   110     1
   101    52    53     1
   102    52    54     1
   103    52    60     1
   104    54    55     1
   105    54    56     1
   106    55   111     1
   107    55   112     1
   108    55   113     1
   109    56    57     1
   110    56    58     1
   111    56   114     1
   112    57   115     1
   113    58    59     1
   114    58   116     1
   115    58   117     1
   116    59    60     1
   117    59    66     1
   118    59   118     1
   119    60    61     1
   120    60    65     1
   121    61    62     1
   122    62    63     1
   123    62    64     2
   124    63   119     1
   125    63   120     1
   126    63   121     1
   127    65    66     1
   128    65   122     1
   129    65   123     1
   130    67   124     1
   131    68   125     1
   132    68   126     1
   133    69   127     1
