@<TRIPOS>MOLECULE
PTX
171 177 1 0 0
SMALL
USER_CHARGES


@<TRIPOS>ATOM
      1 C          -9.0195  -12.0395   -3.4277 C.3       1     PTX    0.0000
      2 C          -7.8519  -11.1198   -3.8093 C.3       1     PTX    0.0000
      3 C          -8.1061   -9.6656   -3.3817 C.3       1     PTX    0.0000
      4 C          -6.9434   -8.7384   -3.7717 C.3       1     PTX    0.0000
      5 C          -7.2040   -7.2822   -3.3530 C.3       1     PTX    0.0000
      6 C          -6.0552   -6.3486   -3.7681 C.3       1     PTX    0.0000
      7 C          -6.3304   -4.8888   -3.3726 C.3       1     PTX    0.0000
      8 C          -5.2054   -3.9462   -3.8295 C.3       1     PTX    0.0000
      9 C          -5.5037   -2.4825   -3.4679 C.3       1     PTX    0.0000
     10 C          -4.3870   -1.5316   -3.9279 C.3       1     PTX    0.0000
     11 C          -4.7409   -0.0629   -3.6472 C.3       1     PTX    0.0000
     12 C          -3.6146    0.8944   -4.0683 C.3       1     PTX    0.0000
     13 C          -4.0344    2.3652   -3.9088 C.3       1     PTX    0.0000
     14 C          -2.8740    3.3351   -4.2007 C.3       1     PTX    0.0000
     15 C          -3.2655    4.8103   -4.0360 C.3       1     PTX    0.0000
     16 C          -3.6695    5.4775   -5.3541 C.3       1     PTX    0.0000
     17 O          -2.4362    5.6398   -3.2581 O.3       1     PTX    0.0000
     18 C          -1.0303    5.6285   -3.3680 C.3       1     PTX    0.0000
     19 C          -0.4857    5.3030   -4.7596 C.3       1     PTX    0.0000
     20 C          -0.5562    7.0609   -3.0809 C.3       1     PTX    0.0000
     21 O          -0.5196    4.6543   -2.4726 O.3       1     PTX    0.0000
     22 C          -0.1907    5.0053   -1.1484 C.3       1     PTX    0.0000
     23 C          -1.4240    5.3241   -0.3004 C.3       1     PTX    0.0000
     24 C          -2.2970    4.1327    0.0473 C.3       1     PTX    0.0000
     25 O          -2.8320    3.4855   -1.0791 O.3       1     PTX    0.0000
     26 C          -2.1468    2.2858   -0.7755 C.3       1     PTX    0.0000
     27 C          -1.5391    2.8829    0.4932 C.3       1     PTX    0.0000
     28 O          -2.0159    2.4020    1.7151 O.3       1     PTX    0.0000
     29 C          -3.3050    2.0615    1.9893 C.2       1     PTX    0.0000
     30 C          -3.3899    1.5734    3.4241 C.3       1     PTX    0.0000
     31 O          -4.2526    2.1176    1.2405 O.2       1     PTX    0.0000
     32 C          -0.0047    2.9828    0.5302 C.3       1     PTX    0.0000
     33 C           0.6844    1.6304    0.8585 C.3       1     PTX    0.0000
     34 O          -0.2405    0.5744    0.7653 O.3       1     PTX    0.0000
     35 C          -0.1764   -0.4129   -0.1961 C.2       1     PTX    0.0000
     36 O           0.7712   -0.4583   -0.9565 O.2       1     PTX    0.0000
     37 C          -1.1892   -1.3272   -0.3075 C.ar      1     PTX    0.0000
     38 C          -1.1685   -2.3046   -1.2355 C.ar      1     PTX    0.0000
     39 C          -2.1715   -3.1927   -1.3252 C.ar      1     PTX    0.0000
     40 C          -3.2210   -3.1154   -0.4947 C.ar      1     PTX    0.0000
     41 C          -3.2554   -2.1477    0.4323 C.ar      1     PTX    0.0000
     42 C          -2.2461   -1.2676    0.5261 C.ar      1     PTX    0.0000
     43 C           1.4430    1.5010    2.2077 C.3       1     PTX    0.0000
     44 O           0.4662    1.4113    3.2095 O.3       1     PTX    0.0000
     45 C           2.2496    0.1857    2.1928 C.3       1     PTX    0.0000
     46 C           3.4679    0.2685    1.2520 C.3       1     PTX    0.0000
     47 O           4.5032   -0.5876    1.6898 O.3       1     PTX    0.0000
     48 C           5.7238   -0.1493    2.1037 C.2       1     PTX    0.0000
     49 O           6.1205    0.9932    2.1479 O.2       1     PTX    0.0000
     50 C           6.5935   -1.3343    2.5216 C.3       1     PTX    0.0000
     51 O           6.7041   -2.2877    1.4790 O.3       1     PTX    0.0000
     52 C           6.0959   -2.0508    3.7878 C.3       1     PTX    0.0000
     53 N           6.9988   -3.1886    4.0186 N.am      1     PTX    0.0000
     54 C           7.2447   -3.8557    5.1881 C.2       1     PTX    0.0000
     55 O           8.2985   -4.4489    5.2079 O.2       1     PTX    0.0000
     56 C           6.4801   -3.7424    6.3134 C.ar      1     PTX    0.0000
     57 C           5.1524   -3.5251    6.2683 C.ar      1     PTX    0.0000
     58 C           4.4228   -3.4096    7.3894 C.ar      1     PTX    0.0000
     59 C           5.0086   -3.5241    8.5894 C.ar      1     PTX    0.0000
     60 C           6.3244   -3.7713    8.6546 C.ar      1     PTX    0.0000
     61 C           7.0468   -3.8869    7.5288 C.ar      1     PTX    0.0000
     62 C           6.1105   -1.0594    4.9373 C.ar      1     PTX    0.0000
     63 C           7.2674   -0.6466    5.4869 C.ar      1     PTX    0.0000
     64 C           7.2781    0.2310    6.5021 C.ar      1     PTX    0.0000
     65 C           6.1240    0.7166    6.9827 C.ar      1     PTX    0.0000
     66 C           4.9631    0.3216    6.4401 C.ar      1     PTX    0.0000
     67 C           4.9620   -0.5558    5.4250 C.ar      1     PTX    0.0000
     68 C           3.8469    1.6630    0.7552 C.2       1     PTX    0.0000
     69 C           4.7758    1.6134   -0.4441 C.3       1     PTX    0.0000
     70 C           3.2657    2.7768    1.2701 C.2       1     PTX    0.0000
     71 C           3.2696    4.1588    0.6162 C.3       1     PTX    0.0000
     72 O           4.0636    4.2263   -0.5553 O.3       1     PTX    0.0000
     73 C           4.3886    5.4298   -1.1001 C.2       1     PTX    0.0000
     74 C           5.2394    5.2153   -2.3363 C.3       1     PTX    0.0000
     75 O           4.0457    6.5079   -0.6740 O.2       1     PTX    0.0000
     76 C           1.8323    4.6782    0.3438 C.2       1     PTX    0.0000
     77 O           1.5317    5.7305    0.8714 O.2       1     PTX    0.0000
     78 C           0.7436    3.9218   -0.4913 C.3       1     PTX    0.0000
     79 C           1.4450    3.1771   -1.6529 C.3       1     PTX    0.0000
     80 C           2.4640    2.6165    2.5676 C.3       1     PTX    0.0000
     81 C           3.4790    2.2204    3.6866 C.3       1     PTX    0.0000
     82 C           1.8671    3.8758    3.2579 C.3       1     PTX    0.0000
     83 H          -8.8211  -13.0896   -3.7436 H         1     PTX    0.0000
     84 H          -9.1853  -12.0425   -2.3261 H         1     PTX    0.0000
     85 H          -9.9654  -11.7120   -3.9168 H         1     PTX    0.0000
     86 H          -7.6973  -11.1633   -4.9140 H         1     PTX    0.0000
     87 H          -6.9168  -11.4932   -3.3272 H         1     PTX    0.0000
     88 H          -8.2569   -9.6261   -2.2767 H         1     PTX    0.0000
     89 H          -9.0462   -9.3010   -3.8601 H         1     PTX    0.0000
     90 H          -6.7921   -8.7833   -4.8765 H         1     PTX    0.0000
     91 H          -6.0032   -9.0991   -3.2909 H         1     PTX    0.0000
     92 H          -7.3407   -7.2325   -2.2466 H         1     PTX    0.0000
     93 H          -8.1529   -6.9295   -3.8227 H         1     PTX    0.0000
     94 H          -5.9139   -6.4100   -4.8735 H         1     PTX    0.0000
     95 H          -5.1061   -6.6897   -3.2905 H         1     PTX    0.0000
     96 H          -6.4458   -4.8192   -2.2647 H         1     PTX    0.0000
     97 H          -7.2934   -4.5594   -3.8305 H         1     PTX    0.0000
     98 H          -5.0773   -4.0327   -4.9347 H         1     PTX    0.0000
     99 H          -4.2448   -4.2605   -3.3588 H         1     PTX    0.0000
    100 H          -5.6372   -2.3897   -2.3640 H         1     PTX    0.0000
    101 H          -6.4651   -2.1784   -3.9463 H         1     PTX    0.0000
    102 H          -4.2141   -1.6643   -5.0223 H         1     PTX    0.0000
    103 H          -3.4358   -1.7919   -3.4076 H         1     PTX    0.0000
    104 H          -4.9473    0.0684   -2.5580 H         1     PTX    0.0000
    105 H          -5.6744    0.1995   -4.1995 H         1     PTX    0.0000
    106 H          -3.3370    0.7069   -5.1325 H         1     PTX    0.0000
    107 H          -2.7117    0.6867   -3.4460 H         1     PTX    0.0000
    108 H          -4.4047    2.5191   -2.8685 H         1     PTX    0.0000
    109 H          -4.8856    2.5850   -4.5963 H         1     PTX    0.0000
    110 H          -2.5421    3.1456   -5.2480 H         1     PTX    0.0000
    111 H          -2.0233    3.0532   -3.5478 H         1     PTX    0.0000
    112 H          -4.2158    4.8090   -3.4380 H         1     PTX    0.0000
    113 H          -3.9434    6.5472   -5.2050 H         1     PTX    0.0000
    114 H          -4.5545    4.9674   -5.7999 H         1     PTX    0.0000
    115 H          -2.8683    5.4360   -6.1215 H         1     PTX    0.0000
    116 H           0.6258    5.3849   -4.7636 H         1     PTX    0.0000
    117 H          -0.8475    6.0126   -5.5349 H         1     PTX    0.0000
    118 H          -0.6856    4.2676   -5.0986 H         1     PTX    0.0000
    119 H          -0.9418    7.4783   -2.1257 H         1     PTX    0.0000
    120 H           0.5539    7.1519   -3.0878 H         1     PTX    0.0000
    121 H          -0.9308    7.7582   -3.8652 H         1     PTX    0.0000
    122 H           0.4406    5.9175   -1.2371 H         1     PTX    0.0000
    123 H          -1.0907    5.7689    0.6667 H         1     PTX    0.0000
    124 H          -2.0611    6.1066   -0.7678 H         1     PTX    0.0000
    125 H          -3.1323    4.4315    0.7205 H         1     PTX    0.0000
    126 H          -2.8500    1.4370   -0.6621 H         1     PTX    0.0000
    127 H          -1.3923    2.0693   -1.5600 H         1     PTX    0.0000
    128 H          -2.6984    0.7155    3.5864 H         1     PTX    0.0000
    129 H          -3.1202    2.3940    4.1269 H         1     PTX    0.0000
    130 H          -4.4218    1.2334    3.6666 H         1     PTX    0.0000
    131 H           0.0269    3.5571    1.4781 H         1     PTX    0.0000
    132 H           1.4432    1.4780    0.0800 H         1     PTX    0.0000
    133 H          -0.3379   -2.4189   -1.9514 H         1     PTX    0.0000
    134 H          -2.1361   -3.9880   -2.0888 H         1     PTX    0.0000
    135 H          -4.0473   -3.8415   -0.5733 H         1     PTX    0.0000
    136 H          -4.1148   -2.0784    1.1204 H         1     PTX    0.0000
    137 H          -2.3241   -0.4979    1.3104 H         1     PTX    0.0000
    138 H          -0.1931    0.7633    2.9416 H         1     PTX    0.0000
    139 H           1.6108   -0.6857    1.9219 H         1     PTX    0.0000
    140 H           2.5574   -0.0812    3.2275 H         1     PTX    0.0000
    141 H           3.1049   -0.2135    0.3057 H         1     PTX    0.0000
    142 H           7.6305   -0.9560    2.6801 H         1     PTX    0.0000
    143 H           7.2351   -1.9491    0.7554 H         1     PTX    0.0000
    144 H           5.0770   -2.4391    3.5611 H         1     PTX    0.0000
    145 H           7.6070   -3.4499    3.2429 H         1     PTX    0.0000
    146 H           4.6047   -3.4751    5.3170 H         1     PTX    0.0000
    147 H           3.3352   -3.2359    7.3259 H         1     PTX    0.0000
    148 H           4.4120   -3.4325    9.5120 H         1     PTX    0.0000
    149 H           6.8125   -3.8768    9.6383 H         1     PTX    0.0000
    150 H           8.1268   -4.0790    7.6467 H         1     PTX    0.0000
    151 H           8.2283   -1.0307    5.1071 H         1     PTX    0.0000
    152 H           8.2365    0.5541    6.9420 H         1     PTX    0.0000
    153 H           6.1295    1.4378    7.8167 H         1     PTX    0.0000
    154 H           4.0099    0.7184    6.8277 H         1     PTX    0.0000
    155 H           3.9971   -0.8664    4.9924 H         1     PTX    0.0000
    156 H           4.2359    1.7285   -1.4075 H         1     PTX    0.0000
    157 H           5.5952    2.3602   -0.3668 H         1     PTX    0.0000
    158 H           5.3044    0.6376   -0.5158 H         1     PTX    0.0000
    159 H           3.7631    4.8216    1.3670 H         1     PTX    0.0000
    160 H           6.1836    4.6881   -2.0705 H         1     PTX    0.0000
    161 H           4.6830    4.6090   -3.0869 H         1     PTX    0.0000
    162 H           5.5055    6.1887   -2.8064 H         1     PTX    0.0000
    163 H           0.7402    2.5210   -2.2101 H         1     PTX    0.0000
    164 H           1.9094    3.8876   -2.3742 H         1     PTX    0.0000
    165 H           2.2794    2.5212   -1.3540 H         1     PTX    0.0000
    166 H           2.9659    1.9625    4.6409 H         1     PTX    0.0000
    167 H           4.1329    1.3616    3.4610 H         1     PTX    0.0000
    168 H           4.1996    3.0423    3.9010 H         1     PTX    0.0000
    169 H           1.4305    3.6232    4.2507 H         1     PTX    0.0000
    170 H           2.6380    4.6571    3.4432 H         1     PTX    0.0000
    171 H           1.0415    4.4040    2.7613 H         1     PTX    0.0000
@<TRIPOS>BOND
     1     1     2     1
     2     1    83     1
     3     1    84     1
     4     1    85     1
     5     2     3     1
     6     2    86     1
     7     2    87     1
     8     3     4     1
     9     3    88     1
    10     3    89     1
    11     4     5     1
    12     4    90     1
    13     4    91     1
    14     5     6     1
    15     5    92     1
    16     5    93     1
    17     6     7     1
    18     6    94     1
    19     6    95     1
    20     7     8     1
    21     7    96     1
    22     7    97     1
    23     8     9     1
    24     8    98     1
    25     8    99     1
    26     9    10     1
    27     9   100     1
    28     9   101     1
    29    10    11     1
    30    10   102     1
    31    10   103     1
    32    11    12     1
    33    11   104     1
    34    11   105     1
    35    12    13     1
    36    12   106     1
    37    12   107     1
    38    13    14     1
    39    13   108     1
    40    13   109     1
    41    14    15     1
    42    14   110     1
    43    14   111     1
    44    15    16     1
    45    15    17     1
    46    15   112     1
    47    16   113     1
    48    16   114     1
    49    16   115     1
    50    17    18     1
    51    18    19     1
    52    18    20     1
    53    18    21     1
    54    19   116     1
    55    19   117     1
    56    19   118     1
    57    20   119     1
    58    20   120     1
    59    20   121     1
    60    21    22     1
    61    22    23     1
    62    22    78     1
    63    22   122     1
    64    23    24     1
    65    23   123     1
    66    23   124     1
    67    24    25     1
    68    24    27     1
    69    24   125     1
    70    25    26     1
    71    26    27     1
    72    26   126     1
    73    26   127     1
    74    27    28     1
    75    27    32     1
    76    28    29     1
    77    29    30     1
    78    29    31     2
    79    30   128     1
    80    30   129     1
    81    30   130     1
    82    32    33     1
    83    32    78     1
    84    32   131     1
    85    33    34     1
    86    33    43     1
    87    33   132     1
    88    34    35     1
    89    35    36     2
    90    35    37     1
    91    37    38     1
    92    37    42     2
    93    38    39     2
    94    38   133     1
    95    39    40     1
    96    39   134     1
    97    40    41     2
    98    40   135     1
    99    41    42     1
   100    41   136     1
   101    42   137     1
   102    43    44     1
   103    43    45     1
   104    43    80     1
   105    44   138     1
   106    45    46     1
   107    45   139     1
   108    45   140     1
   109    46    47     1
   110    46    68     1
   111    46   141     1
   112    47    48     1
   113    48    49     2
   114    48    50     1
   115    50    51     1
   116    50    52     1
   117    50   142     1
   118    51   143     1
   119    52    53     1
   120    52    62     1
   121    52   144     1
   122    53    54     1
   123    53   145     1
   124    54    55     2
   125    54    56     1
   126    56    57     1
   127    56    61     2
   128    57    58     2
   129    57   146     1
   130    58    59     1
   131    58   147     1
   132    59    60     2
   133    59   148     1
   134    60    61     1
   135    60   149     1
   136    61   150     1
   137    62    63     1
   138    62    67     2
   139    63    64     2
   140    63   151     1
   141    64    65     1
   142    64   152     1
   143    65    66     2
   144    65   153     1
   145    66    67     1
   146    66   154     1
   147    67   155     1
   148    68    69     1
   149    68    70     2
   150    69   156     1
   151    69   157     1
   152    69   158     1
   153    70    71     1
   154    70    80     1
   155    71    72     1
   156    71    76     1
   157    71   159     1
   158    72    73     1
   159    73    74     1
   160    73    75     2
   161    74   160     1
   162    74   161     1
   163    74   162     1
   164    76    77     2
   165    76    78     1
   166    78    79     1
   167    79   163     1
   168    79   164     1
   169    79   165     1
   170    80    81     1
   171    80    82     1
   172    81   166     1
   173    81   167     1
   174    81   168     1
   175    82   169     1
   176    82   170     1
   177    82   171     1
