@<TRIPOS>MOLECULE
PTX
177 183 1 0 0
SMALL
USER_CHARGES


@<TRIPOS>ATOM
      1 C          31.8201    9.5549   -8.5680 C.3       1     PTX    0.0000
      2 C          30.2935    9.4873   -8.4285 C.3       1     PTX    0.0000
      3 C          29.8453    8.2455   -7.6412 C.3       1     PTX    0.0000
      4 C          28.3158    8.1728   -7.5041 C.3       1     PTX    0.0000
      5 C          27.8649    6.9272   -6.7233 C.3       1     PTX    0.0000
      6 C          26.3343    6.8510   -6.6010 C.3       1     PTX    0.0000
      7 C          25.8759    5.5973   -5.8380 C.3       1     PTX    0.0000
      8 C          24.3436    5.5146   -5.7444 C.3       1     PTX    0.0000
      9 C          23.8732    4.2470   -5.0122 C.3       1     PTX    0.0000
     10 C          22.3394    4.1549   -4.9635 C.3       1     PTX    0.0000
     11 C          21.8529    2.8686   -4.2755 C.3       1     PTX    0.0000
     12 C          20.3191    2.7648   -4.2895 C.3       1     PTX    0.0000
     13 C          19.8135    1.4569   -3.6584 C.3       1     PTX    0.0000
     14 C          18.2834    1.3404   -3.7529 C.3       1     PTX    0.0000
     15 C          17.7575    0.0103   -3.1884 C.3       1     PTX    0.0000
     16 C          16.2375   -0.1183   -3.3793 C.3       1     PTX    0.0000
     17 C          15.6916   -1.4681   -2.8853 C.3       1     PTX    0.0000
     18 C          14.1962   -1.5982   -3.1799 C.3       1     PTX    0.0000
     19 O          13.7473   -2.8614   -2.7566 O.3       1     PTX    0.0000
     20 C          12.3542   -3.0655   -2.7928 C.3       1     PTX    0.0000
     21 C          11.7109   -2.5280   -4.0747 C.3       1     PTX    0.0000
     22 C          12.1084   -4.5779   -2.7738 C.3       1     PTX    0.0000
     23 O          11.7360   -2.3736   -1.7262 O.3       1     PTX    0.0000
     24 C          11.9160   -2.8279   -0.4064 C.3       1     PTX    0.0000
     25 C          13.0426   -2.0451    0.2725 C.3       1     PTX    0.0000
     26 C          12.7347   -0.5841    0.5435 C.3       1     PTX    0.0000
     27 O          12.4358    0.1701   -0.6072 O.3       1     PTX    0.0000
     28 C          11.1274    0.4398   -0.1411 C.3       1     PTX    0.0000
     29 C          11.3579   -0.3335    1.1594 C.3       1     PTX    0.0000
     30 O          11.4682    0.4026    2.3427 O.3       1     PTX    0.0000
     31 C          12.0662    1.6182    2.4744 C.2       1     PTX    0.0000
     32 C          11.9798    2.0557    3.9255 C.3       1     PTX    0.0000
     33 O          12.5905    2.2742    1.6048 O.2       1     PTX    0.0000
     34 C          10.4626   -1.5654    1.3920 C.3       1     PTX    0.0000
     35 C           9.0326   -1.1975    1.8801 C.3       1     PTX    0.0000
     36 O           8.8263    0.1910    1.7984 O.3       1     PTX    0.0000
     37 C           7.9508    0.7851    0.9151 C.2       1     PTX    0.0000
     38 O           7.2735    0.0977    0.1755 O.2       1     PTX    0.0000
     39 C           7.8562    2.1497    0.8683 C.ar      1     PTX    0.0000
     40 C           7.0249    2.7794    0.0144 C.ar      1     PTX    0.0000
     41 C           6.9531    4.1201   -0.0151 C.ar      1     PTX    0.0000
     42 C           7.7115    4.8568    0.8093 C.ar      1     PTX    0.0000
     43 C           8.5414    4.2435    1.6651 C.ar      1     PTX    0.0000
     44 C           8.6100    2.9033    1.6928 C.ar      1     PTX    0.0000
     45 C           8.5784   -1.6623    3.2904 C.3       1     PTX    0.0000
     46 O           9.2383   -0.8381    4.2135 O.3       1     PTX    0.0000
     47 C           7.0608   -1.4181    3.4177 C.3       1     PTX    0.0000
     48 C           6.2402   -2.4172    2.5780 C.3       1     PTX    0.0000
     49 O           4.9643   -2.6250    3.1481 O.3       1     PTX    0.0000
     50 C           4.5366   -3.8236    3.6292 C.2       1     PTX    0.0000
     51 O           5.1462   -4.8686    3.6527 O.2       1     PTX    0.0000
     52 C           3.0981   -3.7278    4.1344 C.3       1     PTX    0.0000
     53 O           2.2067   -3.9659    3.0597 O.3       1     PTX    0.0000
     54 C           2.6909   -2.4147    4.8259 C.3       1     PTX    0.0000
     55 N           1.2689   -2.5519    5.1775 N.am      1     PTX    0.0000
     56 C           0.5647   -1.8885    6.1454 C.2       1     PTX    0.0000
     57 O          -0.4300   -2.4661    6.5190 O.2       1     PTX    0.0000
     58 C           1.0052   -0.7633    6.7800 C.ar      1     PTX    0.0000
     59 C           1.7782    0.1546    6.1703 C.ar      1     PTX    0.0000
     60 C           2.2049    1.2513    6.8166 C.ar      1     PTX    0.0000
     61 C           1.8527    1.4610    8.0927 C.ar      1     PTX    0.0000
     62 C           1.0577    0.5737    8.7071 C.ar      1     PTX    0.0000
     63 C           0.6337   -0.5196    8.0534 C.ar      1     PTX    0.0000
     64 C           3.5678   -2.2222    6.0510 C.ar      1     PTX    0.0000
     65 C           3.4469   -3.0217    7.1267 C.ar      1     PTX    0.0000
     66 C           4.2287   -2.8570    8.2049 C.ar      1     PTX    0.0000
     67 C           5.1535   -1.8858    8.2227 C.ar      1     PTX    0.0000
     68 C           5.2887   -1.0819    7.1580 C.ar      1     PTX    0.0000
     69 C           4.5003   -1.2527    6.0860 C.ar      1     PTX    0.0000
     70 C           6.9958   -3.6330    2.0437 C.2       1     PTX    0.0000
     71 C           6.2348   -4.3430    0.9382 C.3       1     PTX    0.0000
     72 C           8.2644   -3.9048    2.4441 C.2       1     PTX    0.0000
     73 C           9.2419   -4.8279    1.7142 C.3       1     PTX    0.0000
     74 O           8.6586   -5.5045    0.6138 O.3       1     PTX    0.0000
     75 C           9.3487   -6.4720   -0.0481 C.2       1     PTX    0.0000
     76 C           8.4958   -7.0298   -1.1701 C.3       1     PTX    0.0000
     77 O          10.4765   -6.8251    0.2050 O.2       1     PTX    0.0000
     78 C          10.5311   -4.0713    1.2978 C.2       1     PTX    0.0000
     79 O          11.5762   -4.4887    1.7560 O.2       1     PTX    0.0000
     80 C          10.5673   -2.7897    0.4026 C.3       1     PTX    0.0000
     81 C           9.4098   -2.8676   -0.6221 C.3       1     PTX    0.0000
     82 C           8.7902   -3.1527    3.6734 C.3       1     PTX    0.0000
     83 C           7.9448   -3.6320    4.8980 C.3       1     PTX    0.0000
     84 C          10.1996   -3.4915    4.2339 C.3       1     PTX    0.0000
     85 H          32.1295   10.4595   -9.1406 H         1     PTX    0.0000
     86 H          32.3133    9.6005   -7.5702 H         1     PTX    0.0000
     87 H          32.2144    8.6626   -9.1060 H         1     PTX    0.0000
     88 H          29.8329    9.4720   -9.4453 H         1     PTX    0.0000
     89 H          29.9307   10.4083   -7.9124 H         1     PTX    0.0000
     90 H          30.3077    8.2649   -6.6258 H         1     PTX    0.0000
     91 H          30.2144    7.3283   -8.1588 H         1     PTX    0.0000
     92 H          27.8556    8.1578   -8.5207 H         1     PTX    0.0000
     93 H          27.9469    9.0887   -6.9841 H         1     PTX    0.0000
     94 H          28.3177    6.9439   -5.7036 H         1     PTX    0.0000
     95 H          28.2399    6.0123   -7.2407 H         1     PTX    0.0000
     96 H          25.8846    6.8452   -7.6224 H         1     PTX    0.0000
     97 H          25.9585    7.7615   -6.0765 H         1     PTX    0.0000
     98 H          26.3109    5.6064   -4.8105 H         1     PTX    0.0000
     99 H          26.2631    4.6884   -6.3572 H         1     PTX    0.0000
    100 H          23.9137    5.5241   -6.7743 H         1     PTX    0.0000
    101 H          23.9549    6.4155   -5.2127 H         1     PTX    0.0000
    102 H          24.2802    4.2424   -3.9733 H         1     PTX    0.0000
    103 H          24.2796    3.3484   -5.5346 H         1     PTX    0.0000
    104 H          21.9400    4.1857   -6.0053 H         1     PTX    0.0000
    105 H          21.9306    5.0419   -4.4236 H         1     PTX    0.0000
    106 H          22.2201    2.8446   -3.2222 H         1     PTX    0.0000
    107 H          22.2860    1.9846   -4.8013 H         1     PTX    0.0000
    108 H          19.9617    2.8218   -5.3454 H         1     PTX    0.0000
    109 H          19.8821    3.6341   -3.7431 H         1     PTX    0.0000
    110 H          20.1286    1.4088   -2.5892 H         1     PTX    0.0000
    111 H          20.2806    0.5908   -4.1848 H         1     PTX    0.0000
    112 H          17.9799    1.4258   -4.8237 H         1     PTX    0.0000
    113 H          17.8103    2.1896   -3.2048 H         1     PTX    0.0000
    114 H          18.0088   -0.0643   -2.1040 H         1     PTX    0.0000
    115 H          18.2650   -0.8362   -3.7092 H         1     PTX    0.0000
    116 H          15.9989   -0.0055   -4.4639 H         1     PTX    0.0000
    117 H          15.7224    0.7106   -2.8377 H         1     PTX    0.0000
    118 H          15.8744   -1.5654   -1.7890 H         1     PTX    0.0000
    119 H          16.2389   -2.2996   -3.3903 H         1     PTX    0.0000
    120 H          14.0478   -1.5016   -4.2793 H         1     PTX    0.0000
    121 H          13.6390   -0.7937   -2.6536 H         1     PTX    0.0000
    122 H          10.6428   -2.8397   -4.1355 H         1     PTX    0.0000
    123 H          12.2175   -2.9116   -4.9893 H         1     PTX    0.0000
    124 H          11.7000   -1.4156   -4.1174 H         1     PTX    0.0000
    125 H          12.7380   -5.1238   -2.0371 H         1     PTX    0.0000
    126 H          11.0420   -4.8308   -2.5831 H         1     PTX    0.0000
    127 H          12.3757   -5.0292   -3.7565 H         1     PTX    0.0000
    128 H          12.2445   -3.8860   -0.4671 H         1     PTX    0.0000
    129 H          13.2748   -2.5164    1.2567 H         1     PTX    0.0000
    130 H          13.9885   -2.1116   -0.3091 H         1     PTX    0.0000
    131 H          13.5792   -0.0956    1.0808 H         1     PTX    0.0000
    132 H          10.9403    1.5290   -0.0592 H         1     PTX    0.0000
    133 H          10.3895   -0.0351   -0.8209 H         1     PTX    0.0000
    134 H          10.9262    2.0277    4.2853 H         1     PTX    0.0000
    135 H          12.5975    1.3847    4.5644 H         1     PTX    0.0000
    136 H          12.3561    3.0962    4.0482 H         1     PTX    0.0000
    137 H          10.9958   -1.9115    2.3016 H         1     PTX    0.0000
    138 H           8.3337   -1.6766    1.1825 H         1     PTX    0.0000
    139 H           6.3781    2.2293   -0.6888 H         1     PTX    0.0000
    140 H           6.2687    4.6212   -0.7207 H         1     PTX    0.0000
    141 H           7.6530    5.9577    0.7843 H         1     PTX    0.0000
    142 H           9.1678    4.8431    2.3472 H         1     PTX    0.0000
    143 H           9.3069    2.4532    2.4176 H         1     PTX    0.0000
    144 H           9.1151    0.0799    3.9522 H         1     PTX    0.0000
    145 H           6.7825   -0.3723    3.1543 H         1     PTX    0.0000
    146 H           6.7733   -1.4598    4.4901 H         1     PTX    0.0000
    147 H           6.0237   -1.8540    1.6314 H         1     PTX    0.0000
    148 H           2.9401   -4.5804    4.8361 H         1     PTX    0.0000
    149 H           2.2371   -4.8877    2.7938 H         1     PTX    0.0000
    150 H           2.7983   -1.5992    4.0755 H         1     PTX    0.0000
    151 H           0.7631   -3.3165    4.7310 H         1     PTX    0.0000
    152 H           2.0561    0.0662    5.1107 H         1     PTX    0.0000
    153 H           2.8340    1.9915    6.2937 H         1     PTX    0.0000
    154 H           2.1992    2.3619    8.6256 H         1     PTX    0.0000
    155 H           0.7547    0.7444    9.7541 H         1     PTX    0.0000
    156 H          -0.0093   -1.2191    8.6142 H         1     PTX    0.0000
    157 H           2.6956   -3.8283    7.1350 H         1     PTX    0.0000
    158 H           4.1123   -3.5217    9.0772 H         1     PTX    0.0000
    159 H           5.7984   -1.7491    9.1065 H         1     PTX    0.0000
    160 H           6.0465   -0.2807    7.1636 H         1     PTX    0.0000
    161 H           4.6258   -0.5783    5.2231 H         1     PTX    0.0000
    162 H           6.5522   -4.0229   -0.0764 H         1     PTX    0.0000
    163 H           6.2968   -5.4486    1.0320 H         1     PTX    0.0000
    164 H           5.1447   -4.1282    0.9851 H         1     PTX    0.0000
    165 H           9.5046   -5.6177    2.4583 H         1     PTX    0.0000
    166 H           7.5637   -7.4819   -0.7616 H         1     PTX    0.0000
    167 H           8.2252   -6.2206   -1.8860 H         1     PTX    0.0000
    168 H           9.0477   -7.8171   -1.7314 H         1     PTX    0.0000
    169 H           9.2917   -1.9238   -1.1978 H         1     PTX    0.0000
    170 H           9.5525   -3.7004   -1.3446 H         1     PTX    0.0000
    171 H           8.4150   -3.0638   -0.1915 H         1     PTX    0.0000
    172 H           8.1750   -3.0492    5.8190 H         1     PTX    0.0000
    173 H           6.8482   -3.5753    4.7859 H         1     PTX    0.0000
    174 H           8.1279   -4.7075    5.1236 H         1     PTX    0.0000
    175 H          10.3793   -2.9869    5.2101 H         1     PTX    0.0000
    176 H          10.3280   -4.5819    4.4170 H         1     PTX    0.0000
    177 H          11.0761   -3.1837    3.6466 H         1     PTX    0.0000
@<TRIPOS>BOND
     1     1     2     1
     2     1    85     1
     3     1    86     1
     4     1    87     1
     5     2     3     1
     6     2    88     1
     7     2    89     1
     8     3     4     1
     9     3    90     1
    10     3    91     1
    11     4     5     1
    12     4    92     1
    13     4    93     1
    14     5     6     1
    15     5    94     1
    16     5    95     1
    17     6     7     1
    18     6    96     1
    19     6    97     1
    20     7     8     1
    21     7    98     1
    22     7    99     1
    23     8     9     1
    24     8   100     1
    25     8   101     1
    26     9    10     1
    27     9   102     1
    28     9   103     1
    29    10    11     1
    30    10   104     1
    31    10   105     1
    32    11    12     1
    33    11   106     1
    34    11   107     1
    35    12    13     1
    36    12   108     1
    37    12   109     1
    38    13    14     1
    39    13   110     1
    40    13   111     1
    41    14    15     1
    42    14   112     1
    43    14   113     1
    44    15    16     1
    45    15   114     1
    46    15   115     1
    47    16    17     1
    48    16   116     1
    49    16   117     1
    50    17    18     1
    51    17   118     1
    52    17   119     1
    53    18    19     1
    54    18   120     1
    55    18   121     1
    56    19    20     1
    57    20    21     1
    58    20    22     1
    59    20    23     1
    60    21   122     1
    61    21   123     1
    62    21   124     1
    63    22   125     1
    64    22   126     1
    65    22   127     1
    66    23    24     1
    67    24    25     1
    68    24    80     1
    69    24   128     1
    70    25    26     1
    71    25   129     1
    72    25   130     1
    73    26    27     1
    74    26    29     1
    75    26   131     1
    76    27    28     1
    77    28    29     1
    78    28   132     1
    79    28   133     1
    80    29    30     1
    81    29    34     1
    82    30    31     1
    83    31    32     1
    84    31    33     2
    85    32   134     1
    86    32   135     1
    87    32   136     1
    88    34    35     1
    89    34    80     1
    90    34   137     1
    91    35    36     1
    92    35    45     1
    93    35   138     1
    94    36    37     1
    95    37    38     2
    96    37    39     1
    97    39    40     1
    98    39    44     2
    99    40    41     2
   100    40   139     1
   101    41    42     1
   102    41   140     1
   103    42    43     2
   104    42   141     1
   105    43    44     1
   106    43   142     1
   107    44   143     1
   108    45    46     1
   109    45    47     1
   110    45    82     1
   111    46   144     1
   112    47    48     1
   113    47   145     1
   114    47   146     1
   115    48    49     1
   116    48    70     1
   117    48   147     1
   118    49    50     1
   119    50    51     2
   120    50    52     1
   121    52    53     1
   122    52    54     1
   123    52   148     1
   124    53   149     1
   125    54    55     1
   126    54    64     1
   127    54   150     1
   128    55    56     1
   129    55   151     1
   130    56    57     2
   131    56    58     1
   132    58    59     1
   133    58    63     2
   134    59    60     2
   135    59   152     1
   136    60    61     1
   137    60   153     1
   138    61    62     2
   139    61   154     1
   140    62    63     1
   141    62   155     1
   142    63   156     1
   143    64    65     1
   144    64    69     2
   145    65    66     2
   146    65   157     1
   147    66    67     1
   148    66   158     1
   149    67    68     2
   150    67   159     1
   151    68    69     1
   152    68   160     1
   153    69   161     1
   154    70    71     1
   155    70    72     2
   156    71   162     1
   157    71   163     1
   158    71   164     1
   159    72    73     1
   160    72    82     1
   161    73    74     1
   162    73    78     1
   163    73   165     1
   164    74    75     1
   165    75    76     1
   166    75    77     2
   167    76   166     1
   168    76   167     1
   169    76   168     1
   170    78    79     2
   171    78    80     1
   172    80    81     1
   173    81   169     1
   174    81   170     1
   175    81   171     1
   176    82    83     1
   177    82    84     1
   178    83   172     1
   179    83   173     1
   180    83   174     1
   181    84   175     1
   182    84   176     1
   183    84   177     1
