@<TRIPOS>MOLECULE
PTX
175 181 1 0 0
SMALL
USER_CHARGES


@<TRIPOS>ATOM
      1 C          -9.2847  -20.6623    3.3800 C.3       1     PTX    0.0000
      2 C          -9.3009  -19.3213    2.6343 C.3       1     PTX    0.0000
      3 C          -8.4152  -18.2720    3.3249 C.3       1     PTX    0.0000
      4 C          -8.4315  -16.9262    2.5819 C.3       1     PTX    0.0000
      5 C          -7.5493  -15.8751    3.2754 C.3       1     PTX    0.0000
      6 C          -7.5730  -14.5271    2.5366 C.3       1     PTX    0.0000
      7 C          -6.7000  -13.4716    3.2350 C.3       1     PTX    0.0000
      8 C          -6.7395  -12.1209    2.5034 C.3       1     PTX    0.0000
      9 C          -5.8939  -11.0917    3.2117 C.2       1     PTX    0.0000
     10 C          -4.8517  -10.4595    2.6508 C.2       1     PTX    0.0000
     11 C          -4.0209   -9.4171    3.3577 C.3       1     PTX    0.0000
     12 C          -4.2314   -8.0316    2.7279 C.3       1     PTX    0.0000
     13 C          -3.4182   -6.9419    3.4456 C.3       1     PTX    0.0000
     14 C          -3.6505   -5.5533    2.8280 C.3       1     PTX    0.0000
     15 C          -2.8621   -4.4555    3.5606 C.3       1     PTX    0.0000
     16 C          -3.1171   -3.0665    2.9533 C.3       1     PTX    0.0000
     17 C          -2.3498   -1.9609    3.6964 C.3       1     PTX    0.0000
     18 C          -2.6238   -0.5824    3.0921 C.3       1     PTX    0.0000
     19 O          -1.8836    0.3823    3.7985 O.3       1     PTX    0.0000
     20 C          -1.8733    1.6801    3.2525 C.3       1     PTX    0.0000
     21 C          -3.2554    2.1280    2.7685 C.3       1     PTX    0.0000
     22 C          -1.4593    2.6457    4.3682 C.3       1     PTX    0.0000
     23 O          -1.0240    1.7357    2.1241 O.3       1     PTX    0.0000
     24 C           0.3564    1.5110    2.2857 C.3       1     PTX    0.0000
     25 C           0.6963    0.0588    1.9354 C.3       1     PTX    0.0000
     26 C           0.5138   -0.3116    0.4741 C.3       1     PTX    0.0000
     27 O          -0.7928   -0.1255   -0.0179 O.3       1     PTX    0.0000
     28 C          -0.3521    0.8603   -0.9333 C.3       1     PTX    0.0000
     29 C           1.1076    0.7030   -0.5026 C.3       1     PTX    0.0000
     30 O           1.9842    0.0834   -1.3979 O.3       1     PTX    0.0000
     31 C           1.6788   -0.9502   -2.2287 C.2       1     PTX    0.0000
     32 C           2.9095   -1.3082   -3.0422 C.3       1     PTX    0.0000
     33 O           0.6158   -1.5166   -2.3333 O.2       1     PTX    0.0000
     34 C           1.7817    1.9400    0.1183 C.3       1     PTX    0.0000
     35 C           2.2519    2.9658   -0.9465 C.3       1     PTX    0.0000
     36 O           1.7666    2.6263   -2.2212 O.3       1     PTX    0.0000
     37 C           0.8888    3.4201   -2.9257 C.2       1     PTX    0.0000
     38 O           0.2593    4.2825   -2.3436 O.2       1     PTX    0.0000
     39 C           0.7783    3.2768   -4.2821 C.ar      1     PTX    0.0000
     40 C          -0.0486    4.0493   -5.0142 C.ar      1     PTX    0.0000
     41 C          -0.1344    3.8985   -6.3457 C.ar      1     PTX    0.0000
     42 C           0.6042    2.9698   -6.9697 C.ar      1     PTX    0.0000
     43 C           1.4267    2.1910   -6.2526 C.ar      1     PTX    0.0000
     44 C           1.5111    2.3439   -4.9217 C.ar      1     PTX    0.0000
     45 C           3.7719    3.2515   -1.0878 C.3       1     PTX    0.0000
     46 O           4.3353    2.1332   -1.7189 O.3       1     PTX    0.0000
     47 C           3.9487    4.4699   -2.0143 C.3       1     PTX    0.0000
     48 C           3.4838    5.7665   -1.3267 C.3       1     PTX    0.0000
     49 O           4.1215    6.8704   -1.9196 O.3       1     PTX    0.0000
     50 C           5.0508    7.6455   -1.3175 C.2       1     PTX    0.0000
     51 O           5.4074    7.6367   -0.1617 O.2       1     PTX    0.0000
     52 C           5.7090    8.5831   -2.3208 C.3       1     PTX    0.0000
     53 O           6.1811    9.7047   -1.5915 O.3       1     PTX    0.0000
     54 C           4.8629    9.0955   -3.5018 C.3       1     PTX    0.0000
     55 N           5.6857   10.1039   -4.1898 N.am      1     PTX    0.0000
     56 C           5.5727   10.5518   -5.4782 C.2       1     PTX    0.0000
     57 O           6.5935   11.0078   -5.9392 O.2       1     PTX    0.0000
     58 C           4.4734   10.3549   -6.2629 C.ar      1     PTX    0.0000
     59 C           3.2260   10.3139   -5.7588 C.ar      1     PTX    0.0000
     60 C           2.1588   10.1130   -6.5482 C.ar      1     PTX    0.0000
     61 C           2.3176    9.9613   -7.8704 C.ar      1     PTX    0.0000
     62 C           3.5495   10.0306   -8.3944 C.ar      1     PTX    0.0000
     63 C           4.6117   10.2340   -7.5989 C.ar      1     PTX    0.0000
     64 C           4.4923    7.9493   -4.4305 C.ar      1     PTX    0.0000
     65 C           5.4295    7.3099   -5.1543 C.ar      1     PTX    0.0000
     66 C           5.1069    6.2827   -5.9558 C.ar      1     PTX    0.0000
     67 C           3.8331    5.8723   -6.0460 C.ar      1     PTX    0.0000
     68 C           2.8869    6.4986   -5.3319 C.ar      1     PTX    0.0000
     69 C           3.2185    7.5243   -4.5335 C.ar      1     PTX    0.0000
     70 C           3.3354    5.7319    0.1933 C.2       1     PTX    0.0000
     71 C           2.5812    6.9340    0.7285 C.3       1     PTX    0.0000
     72 C           3.6817    4.6268    0.9029 C.2       1     PTX    0.0000
     73 C           3.1867    4.2848    2.3093 C.3       1     PTX    0.0000
     74 O           2.3933    5.3064    2.8888 O.3       1     PTX    0.0000
     75 C           2.0125    5.2290    4.1926 C.2       1     PTX    0.0000
     76 C           1.1732    6.4389    4.5519 C.3       1     PTX    0.0000
     77 O           2.2856    4.3265    4.9488 O.2       1     PTX    0.0000
     78 C           2.4553    2.9148    2.3355 C.2       1     PTX    0.0000
     79 O           2.9330    2.0630    3.0583 O.2       1     PTX    0.0000
     80 C           1.2123    2.5423    1.4611 C.3       1     PTX    0.0000
     81 C           0.3531    3.8142    1.2639 C.3       1     PTX    0.0000
     82 C           4.5689    3.5919    0.2008 C.3       1     PTX    0.0000
     83 C           5.9424    4.2949   -0.0477 C.3       1     PTX    0.0000
     84 C           5.0876    2.3587    0.9909 C.3       1     PTX    0.0000
     85 H          -9.9308  -21.4122    2.8679 H         1     PTX    0.0000
     86 H          -8.2538  -21.0816    3.4305 H         1     PTX    0.0000
     87 H          -9.6605  -20.5471    4.4223 H         1     PTX    0.0000
     88 H         -10.3506  -18.9458    2.5778 H         1     PTX    0.0000
     89 H          -8.9468  -19.4789    1.5874 H         1     PTX    0.0000
     90 H          -7.3673  -18.6519    3.3799 H         1     PTX    0.0000
     91 H          -8.7710  -18.1211    4.3718 H         1     PTX    0.0000
     92 H          -9.4802  -16.5488    2.5254 H         1     PTX    0.0000
     93 H          -8.0739  -17.0768    1.5356 H         1     PTX    0.0000
     94 H          -6.4993  -16.2494    3.3286 H         1     PTX    0.0000
     95 H          -7.9050  -15.7284    4.3230 H         1     PTX    0.0000
     96 H          -8.6241  -14.1564    2.4796 H         1     PTX    0.0000
     97 H          -7.2130  -14.6721    1.4903 H         1     PTX    0.0000
     98 H          -5.6453  -13.8339    3.2831 H         1     PTX    0.0000
     99 H          -7.0562  -13.3372    4.2843 H         1     PTX    0.0000
    100 H          -7.7871  -11.7399    2.4615 H         1     PTX    0.0000
    101 H          -6.3950  -12.2561    1.4519 H         1     PTX    0.0000
    102 H          -6.1723  -10.8553    4.2522 H         1     PTX    0.0000
    103 H          -4.5778  -10.6865    1.6071 H         1     PTX    0.0000
    104 H          -4.2876   -9.3762    4.4395 H         1     PTX    0.0000
    105 H          -2.9477   -9.7137    3.2951 H         1     PTX    0.0000
    106 H          -3.9388   -8.0624    1.6512 H         1     PTX    0.0000
    107 H          -5.3162   -7.7715    2.7724 H         1     PTX    0.0000
    108 H          -3.7053   -6.9178    4.5238 H         1     PTX    0.0000
    109 H          -2.3325   -7.1948    3.3944 H         1     PTX    0.0000
    110 H          -3.3505   -5.5707    1.7533 H         1     PTX    0.0000
    111 H          -4.7394   -5.3115    2.8665 H         1     PTX    0.0000
    112 H          -3.1559   -4.4462    4.6372 H         1     PTX    0.0000
    113 H          -1.7716   -4.6871    3.5136 H         1     PTX    0.0000
    114 H          -2.8117   -3.0706    1.8797 H         1     PTX    0.0000
    115 H          -4.2100   -2.8434    2.9887 H         1     PTX    0.0000
    116 H          -2.6467   -1.9578    4.7724 H         1     PTX    0.0000
    117 H          -1.2573   -2.1824    3.6564 H         1     PTX    0.0000
    118 H          -2.3364   -0.5768    2.0185 H         1     PTX    0.0000
    119 H          -3.7118   -0.3666    3.1913 H         1     PTX    0.0000
    120 H          -3.2394    3.2040    2.4796 H         1     PTX    0.0000
    121 H          -4.0318    2.0112    3.5583 H         1     PTX    0.0000
    122 H          -3.5910    1.5801    1.8595 H         1     PTX    0.0000
    123 H          -0.5565    2.3262    4.9324 H         1     PTX    0.0000
    124 H          -1.2856    3.6771    3.9907 H         1     PTX    0.0000
    125 H          -2.2631    2.7176    5.1361 H         1     PTX    0.0000
    126 H           0.5847    1.6522    3.3631 H         1     PTX    0.0000
    127 H           1.7632   -0.1414    2.1921 H         1     PTX    0.0000
    128 H           0.1177   -0.6546    2.5607 H         1     PTX    0.0000
    129 H           0.8194   -1.3666    0.2898 H         1     PTX    0.0000
    130 H          -0.6045    0.5908   -1.9782 H         1     PTX    0.0000
    131 H          -0.7973    1.8403   -0.6634 H         1     PTX    0.0000
    132 H           3.2830   -0.4202   -3.6007 H         1     PTX    0.0000
    133 H           3.7179   -1.6802   -2.3726 H         1     PTX    0.0000
    134 H           2.6772   -2.1065   -3.7824 H         1     PTX    0.0000
    135 H           2.7050    1.4110    0.4338 H         1     PTX    0.0000
    136 H           1.8035    3.9295   -0.6719 H         1     PTX    0.0000
    137 H          -0.6778    4.8320   -4.5591 H         1     PTX    0.0000
    138 H          -0.8123    4.5419   -6.9319 H         1     PTX    0.0000
    139 H           0.5353    2.8471   -8.0633 H         1     PTX    0.0000
    140 H           2.0360    1.4243   -6.7605 H         1     PTX    0.0000
    141 H           2.2051    1.6764   -4.3850 H         1     PTX    0.0000
    142 H           3.8076    1.9168   -2.4947 H         1     PTX    0.0000
    143 H           3.4230    4.3409   -2.9875 H         1     PTX    0.0000
    144 H           5.0065    4.5463   -2.3499 H         1     PTX    0.0000
    145 H           2.4146    5.8772   -1.6519 H         1     PTX    0.0000
    146 H           6.6172    8.0492   -2.6865 H         1     PTX    0.0000
    147 H           6.4329    9.4122   -0.7084 H         1     PTX    0.0000
    148 H           3.9723    9.5883   -3.0490 H         1     PTX    0.0000
    149 H           6.5259   10.4154   -3.7031 H         1     PTX    0.0000
    150 H           3.0276   10.4842   -4.6913 H         1     PTX    0.0000
    151 H           1.1456   10.0875   -6.1125 H         1     PTX    0.0000
    152 H           1.4430    9.7983   -8.5216 H         1     PTX    0.0000
    153 H           3.6874    9.9173   -9.4831 H         1     PTX    0.0000
    154 H           5.6011   10.2710   -8.0855 H         1     PTX    0.0000
    155 H           6.4841    7.6247   -5.0923 H         1     PTX    0.0000
    156 H           5.8911    5.7711   -6.5386 H         1     PTX    0.0000
    157 H           3.5643    5.0252   -6.6989 H         1     PTX    0.0000
    158 H           1.8377    6.1671   -5.3960 H         1     PTX    0.0000
    159 H           2.4233    8.0140   -3.9470 H         1     PTX    0.0000
    160 H           1.4935    6.7386    0.8406 H         1     PTX    0.0000
    161 H           3.0110    7.3017    1.6850 H         1     PTX    0.0000
    162 H           2.6572    7.8057    0.0425 H         1     PTX    0.0000
    163 H           4.1110    4.2193    2.9322 H         1     PTX    0.0000
    164 H           1.7602    7.3746    4.4108 H         1     PTX    0.0000
    165 H           0.2630    6.4793    3.9112 H         1     PTX    0.0000
    166 H           0.8456    6.3903    5.6148 H         1     PTX    0.0000
    167 H          -0.4796    3.6558    0.5449 H         1     PTX    0.0000
    168 H          -0.0808    4.1674    2.2238 H         1     PTX    0.0000
    169 H           0.8952    4.6951    0.8823 H         1     PTX    0.0000
    170 H           6.6205    3.6750   -0.6773 H         1     PTX    0.0000
    171 H           5.8966    5.2838   -0.5378 H         1     PTX    0.0000
    172 H           6.4714    4.5067    0.9096 H         1     PTX    0.0000
    173 H           5.8503    1.7965    0.4059 H         1     PTX    0.0000
    174 H           5.5775    2.6471    1.9478 H         1     PTX    0.0000
    175 H           4.3638    1.5734    1.2514 H         1     PTX    0.0000
@<TRIPOS>BOND
     1     1     2     1
     2     1    85     1
     3     1    86     1
     4     1    87     1
     5     2     3     1
     6     2    88     1
     7     2    89     1
     8     3     4     1
     9     3    90     1
    10     3    91     1
    11     4     5     1
    12     4    92     1
    13     4    93     1
    14     5     6     1
    15     5    94     1
    16     5    95     1
    17     6     7     1
    18     6    96     1
    19     6    97     1
    20     7     8     1
    21     7    98     1
    22     7    99     1
    23     8     9     1
    24     8   100     1
    25     8   101     1
    26     9    10     2
    27     9   102     1
    28    10    11     1
    29    10   103     1
    30    11    12     1
    31    11   104     1
    32    11   105     1
    33    12    13     1
    34    12   106     1
    35    12   107     1
    36    13    14     1
    37    13   108     1
    38    13   109     1
    39    14    15     1
    40    14   110     1
    41    14   111     1
    42    15    16     1
    43    15   112     1
    44    15   113     1
    45    16    17     1
    46    16   114     1
    47    16   115     1
    48    17    18     1
    49    17   116     1
    50    17   117     1
    51    18    19     1
    52    18   118     1
    53    18   119     1
    54    19    20     1
    55    20    21     1
    56    20    22     1
    57    20    23     1
    58    21   120     1
    59    21   121     1
    60    21   122     1
    61    22   123     1
    62    22   124     1
    63    22   125     1
    64    23    24     1
    65    24    25     1
    66    24    80     1
    67    24   126     1
    68    25    26     1
    69    25   127     1
    70    25   128     1
    71    26    27     1
    72    26    29     1
    73    26   129     1
    74    27    28     1
    75    28    29     1
    76    28   130     1
    77    28   131     1
    78    29    30     1
    79    29    34     1
    80    30    31     1
    81    31    32     1
    82    31    33     2
    83    32   132     1
    84    32   133     1
    85    32   134     1
    86    34    35     1
    87    34    80     1
    88    34   135     1
    89    35    36     1
    90    35    45     1
    91    35   136     1
    92    36    37     1
    93    37    38     2
    94    37    39     1
    95    39    40     1
    96    39    44     2
    97    40    41     2
    98    40   137     1
    99    41    42     1
   100    41   138     1
   101    42    43     2
   102    42   139     1
   103    43    44     1
   104    43   140     1
   105    44   141     1
   106    45    46     1
   107    45    47     1
   108    45    82     1
   109    46   142     1
   110    47    48     1
   111    47   143     1
   112    47   144     1
   113    48    49     1
   114    48    70     1
   115    48   145     1
   116    49    50     1
   117    50    51     2
   118    50    52     1
   119    52    53     1
   120    52    54     1
   121    52   146     1
   122    53   147     1
   123    54    55     1
   124    54    64     1
   125    54   148     1
   126    55    56     1
   127    55   149     1
   128    56    57     2
   129    56    58     1
   130    58    59     1
   131    58    63     2
   132    59    60     2
   133    59   150     1
   134    60    61     1
   135    60   151     1
   136    61    62     2
   137    61   152     1
   138    62    63     1
   139    62   153     1
   140    63   154     1
   141    64    65     1
   142    64    69     2
   143    65    66     2
   144    65   155     1
   145    66    67     1
   146    66   156     1
   147    67    68     2
   148    67   157     1
   149    68    69     1
   150    68   158     1
   151    69   159     1
   152    70    71     1
   153    70    72     2
   154    71   160     1
   155    71   161     1
   156    71   162     1
   157    72    73     1
   158    72    82     1
   159    73    74     1
   160    73    78     1
   161    73   163     1
   162    74    75     1
   163    75    76     1
   164    75    77     2
   165    76   164     1
   166    76   165     1
   167    76   166     1
   168    78    79     2
   169    78    80     1
   170    80    81     1
   171    81   167     1
   172    81   168     1
   173    81   169     1
   174    82    83     1
   175    82    84     1
   176    83   170     1
   177    83   171     1
   178    83   172     1
   179    84   173     1
   180    84   174     1
   181    84   175     1
