@<TRIPOS>MOLECULE
PPT
116 120 1 0 0
SMALL
USER_CHARGES


@<TRIPOS>ATOM
      1 C          -9.3717   16.4513   -0.2841 C.3       1     PPT    0.0000
      2 C          -9.3570   15.0370    0.3111 C.3       1     PPT    0.0000
      3 C          -8.1671   14.2122   -0.2048 C.3       1     PPT    0.0000
      4 C          -8.1502   12.7931    0.3866 C.3       1     PPT    0.0000
      5 C          -6.9641   11.9664   -0.1361 C.3       1     PPT    0.0000
      6 C          -6.9526   10.5436    0.4466 C.3       1     PPT    0.0000
      7 C          -5.7767    9.7118   -0.0911 C.3       1     PPT    0.0000
      8 C          -5.7754    8.2822    0.4750 C.3       1     PPT    0.0000
      9 C          -4.6168    7.4426   -0.0878 C.3       1     PPT    0.0000
     10 C          -4.6312    6.0037    0.4537 C.3       1     PPT    0.0000
     11 C          -3.4974    5.1540   -0.1434 C.3       1     PPT    0.0000
     12 C          -3.5332    3.7038    0.3660 C.3       1     PPT    0.0000
     13 C          -2.4308    2.8438   -0.2735 C.3       1     PPT    0.0000
     14 C          -2.4920    1.3819    0.1987 C.3       1     PPT    0.0000
     15 C          -1.4269    0.5121   -0.4889 C.3       1     PPT    0.0000
     16 C          -1.5164   -0.9603   -0.0559 C.3       1     PPT    0.0000
     17 C          -0.4916   -1.8367   -0.7939 C.3       1     PPT    0.0000
     18 C          -0.6027   -3.3087   -0.3935 C.3       1     PPT    0.0000
     19 O           0.2989   -4.0526   -1.1750 O.3       1     PPT    0.0000
     20 C           0.5170   -5.3829   -0.7789 C.3       1     PPT    0.0000
     21 C          -0.7536   -6.0810   -0.2823 C.3       1     PPT    0.0000
     22 C           0.9837   -6.1761   -2.0029 C.3       1     PPT    0.0000
     23 O           1.4832   -5.4918    0.2418 O.3       1     PPT    0.0000
     24 C           2.4315   -4.4613    0.4615 C.3       1     PPT    0.0000
     25 C           3.1293   -4.8043    1.7878 C.ar      1     PPT    0.0000
     26 C           2.3392   -5.0016    2.8645 C.ar      1     PPT    0.0000
     27 C           2.8818   -5.3381    4.0394 C.ar      1     PPT    0.0000
     28 O           2.3068   -5.5577    5.1019 O.3       1     PPT    0.0000
     29 C           3.3077   -5.8881    6.0668 C.3       1     PPT    0.0000
     30 O           4.5150   -5.7955    5.3080 O.3       1     PPT    0.0000
     31 C           4.2029   -5.4805    4.1631 C.ar      1     PPT    0.0000
     32 C           5.0075   -5.2773    3.1152 C.ar      1     PPT    0.0000
     33 C           4.4731   -4.9292    1.9273 C.ar      1     PPT    0.0000
     34 C           5.4273   -4.6813    0.7715 C.3       1     PPT    0.0000
     35 C           5.8916   -5.9714    0.1166 C.ar      1     PPT    0.0000
     36 C           5.1241   -7.0703    0.0682 C.ar      1     PPT    0.0000
     37 C           5.5150   -8.1986   -0.5488 C.ar      1     PPT    0.0000
     38 O           4.6955   -9.3008   -0.5333 O.3       1     PPT    0.0000
     39 C           3.8931   -9.4216   -1.6859 C.3       1     PPT    0.0000
     40 C           6.7766   -8.2715   -1.0300 C.ar      1     PPT    0.0000
     41 O           7.2007   -9.4235   -1.6498 O.3       1     PPT    0.0000
     42 C           7.8631  -10.3219   -0.7887 C.3       1     PPT    0.0000
     43 C           7.5654   -7.1711   -1.0482 C.ar      1     PPT    0.0000
     44 O           8.8063   -7.2748   -1.6363 O.3       1     PPT    0.0000
     45 C           9.6635   -6.1569   -1.6414 C.3       1     PPT    0.0000
     46 C           7.1012   -6.0519   -0.4599 C.ar      1     PPT    0.0000
     47 C           4.7285   -3.7005   -0.1708 C.3       1     PPT    0.0000
     48 C           5.4010   -3.2337   -1.4421 C.2       1     PPT    0.0000
     49 O           6.5878   -3.0881   -1.6290 O.2       1     PPT    0.0000
     50 O           4.4146   -2.9688   -2.3418 O.3       1     PPT    0.0000
     51 C           3.1522   -3.2999   -1.8138 C.3       1     PPT    0.0000
     52 C           3.4228   -4.2957   -0.6887 C.3       1     PPT    0.0000
     53 H         -10.2392   17.0370    0.0983 H         1     PPT    0.0000
     54 H          -8.4439   17.0082   -0.0195 H         1     PPT    0.0000
     55 H          -9.4482   16.4189   -1.3950 H         1     PPT    0.0000
     56 H         -10.3115   14.5197    0.0510 H         1     PPT    0.0000
     57 H          -9.3089   15.1071    1.4242 H         1     PPT    0.0000
     58 H          -7.2156   14.7336    0.0564 H         1     PPT    0.0000
     59 H          -8.2183   14.1486   -1.3178 H         1     PPT    0.0000
     60 H          -9.1041   12.2747    0.1280 H         1     PPT    0.0000
     61 H          -8.0954   12.8562    1.4994 H         1     PPT    0.0000
     62 H          -6.0094   12.4813    0.1259 H         1     PPT    0.0000
     63 H          -7.0178   11.9087   -1.2493 H         1     PPT    0.0000
     64 H          -7.9119   10.0336    0.1915 H         1     PPT    0.0000
     65 H          -6.8893   10.5988    1.5593 H         1     PPT    0.0000
     66 H          -4.8157   10.2149    0.1707 H         1     PPT    0.0000
     67 H          -5.8376    9.6669   -1.2046 H         1     PPT    0.0000
     68 H          -6.7439    7.7872    0.2251 H         1     PPT    0.0000
     69 H          -5.6983    8.3228    1.5874 H         1     PPT    0.0000
     70 H          -3.6458    7.9272    0.1721 H         1     PPT    0.0000
     71 H          -4.6897    7.4172   -1.2011 H         1     PPT    0.0000
     72 H          -5.6121    5.5301    0.2106 H         1     PPT    0.0000
     73 H          -4.5359    6.0229    1.5653 H         1     PPT    0.0000
     74 H          -2.5132    5.6136    0.1122 H         1     PPT    0.0000
     75 H          -3.5870    5.1543   -1.2559 H         1     PPT    0.0000
     76 H          -4.5289    3.2574    0.1318 H         1     PPT    0.0000
     77 H          -3.4161    3.6954    1.4757 H         1     PPT    0.0000
     78 H          -1.4314    3.2735   -0.0252 H         1     PPT    0.0000
     79 H          -2.5409    2.8748   -1.3837 H         1     PPT    0.0000
     80 H          -3.5037    0.9667   -0.0242 H         1     PPT    0.0000
     81 H          -2.3504    1.3407    1.3048 H         1     PPT    0.0000
     82 H          -0.4113    0.9090   -0.2517 H         1     PPT    0.0000
     83 H          -1.5604    0.5769   -1.5951 H         1     PPT    0.0000
     84 H          -2.5438   -1.3428   -0.2650 H         1     PPT    0.0000
     85 H          -1.3489   -1.0368    1.0446 H         1     PPT    0.0000
     86 H           0.5380   -1.4672   -0.5729 H         1     PPT    0.0000
     87 H          -0.6495   -1.7432   -1.8951 H         1     PPT    0.0000
     88 H          -1.6406   -3.6581   -0.5968 H         1     PPT    0.0000
     89 H          -0.3686   -3.4236    0.6886 H         1     PPT    0.0000
     90 H          -0.5638   -7.1610   -0.0855 H         1     PPT    0.0000
     91 H          -1.5765   -6.0252   -1.0306 H         1     PPT    0.0000
     92 H          -1.1261   -5.6682    0.6817 H         1     PPT    0.0000
     93 H           1.9083   -5.7773   -2.4658 H         1     PPT    0.0000
     94 H           1.1916   -7.2391   -1.7450 H         1     PPT    0.0000
     95 H           0.2066   -6.1727   -2.8009 H         1     PPT    0.0000
     96 H           1.9201   -3.4916    0.6550 H         1     PPT    0.0000
     97 H           1.2443   -4.8967    2.7956 H         1     PPT    0.0000
     98 H           3.1600   -6.9239    6.4513 H         1     PPT    0.0000
     99 H           3.3089   -5.1536    6.9053 H         1     PPT    0.0000
    100 H           6.0965   -5.3921    3.2372 H         1     PPT    0.0000
    101 H           6.3231   -4.1492    1.1789 H         1     PPT    0.0000
    102 H           4.1235   -7.0621    0.5291 H         1     PPT    0.0000
    103 H           3.2537  -10.3251   -1.5714 H         1     PPT    0.0000
    104 H           3.2433   -8.5245   -1.7904 H         1     PPT    0.0000
    105 H           4.5319   -9.5389   -2.5891 H         1     PPT    0.0000
    106 H           8.1612  -11.2148   -1.3822 H         1     PPT    0.0000
    107 H           8.7749   -9.8446   -0.3655 H         1     PPT    0.0000
    108 H           7.1810  -10.6406    0.0306 H         1     PPT    0.0000
    109 H          10.6013   -6.4520   -2.1636 H         1     PPT    0.0000
    110 H           9.2031   -5.3170   -2.2083 H         1     PPT    0.0000
    111 H           9.9267   -5.8647   -0.6003 H         1     PPT    0.0000
    112 H           7.7267   -5.1488   -0.4243 H         1     PPT    0.0000
    113 H           4.5159   -2.7545    0.3903 H         1     PPT    0.0000
    114 H           2.5211   -3.6997   -2.6353 H         1     PPT    0.0000
    115 H           2.6833   -2.3651   -1.4301 H         1     PPT    0.0000
    116 H           3.6488   -5.2882   -1.1437 H         1     PPT    0.0000
@<TRIPOS>BOND
     1     1     2     1
     2     1    53     1
     3     1    54     1
     4     1    55     1
     5     2     3     1
     6     2    56     1
     7     2    57     1
     8     3     4     1
     9     3    58     1
    10     3    59     1
    11     4     5     1
    12     4    60     1
    13     4    61     1
    14     5     6     1
    15     5    62     1
    16     5    63     1
    17     6     7     1
    18     6    64     1
    19     6    65     1
    20     7     8     1
    21     7    66     1
    22     7    67     1
    23     8     9     1
    24     8    68     1
    25     8    69     1
    26     9    10     1
    27     9    70     1
    28     9    71     1
    29    10    11     1
    30    10    72     1
    31    10    73     1
    32    11    12     1
    33    11    74     1
    34    11    75     1
    35    12    13     1
    36    12    76     1
    37    12    77     1
    38    13    14     1
    39    13    78     1
    40    13    79     1
    41    14    15     1
    42    14    80     1
    43    14    81     1
    44    15    16     1
    45    15    82     1
    46    15    83     1
    47    16    17     1
    48    16    84     1
    49    16    85     1
    50    17    18     1
    51    17    86     1
    52    17    87     1
    53    18    19     1
    54    18    88     1
    55    18    89     1
    56    19    20     1
    57    20    21     1
    58    20    22     1
    59    20    23     1
    60    21    90     1
    61    21    91     1
    62    21    92     1
    63    22    93     1
    64    22    94     1
    65    22    95     1
    66    23    24     1
    67    24    25     1
    68    24    52     1
    69    24    96     1
    70    25    26     2
    71    25    33     1
    72    26    27     1
    73    26    97     1
    74    27    28     1
    75    27    31     2
    76    28    29     1
    77    29    30     1
    78    29    98     1
    79    29    99     1
    80    30    31     1
    81    31    32     1
    82    32    33     2
    83    32   100     1
    84    33    34     1
    85    34    35     1
    86    34    47     1
    87    34   101     1
    88    35    36     1
    89    35    46     2
    90    36    37     2
    91    36   102     1
    92    37    38     1
    93    37    40     1
    94    38    39     1
    95    39   103     1
    96    39   104     1
    97    39   105     1
    98    40    41     1
    99    40    43     2
   100    41    42     1
   101    42   106     1
   102    42   107     1
   103    42   108     1
   104    43    44     1
   105    43    46     1
   106    44    45     1
   107    45   109     1
   108    45   110     1
   109    45   111     1
   110    46   112     1
   111    47    48     1
   112    47    52     1
   113    47   113     1
   114    48    49     2
   115    48    50     1
   116    50    51     1
   117    51    52     1
   118    51   114     1
   119    51   115     1
   120    52   116     1
