@<TRIPOS>MOLECULE
SN3
107 111 1 0 0
SMALL
USER_CHARGES


@<TRIPOS>ATOM
      1 C         -11.3329   14.0087    1.7430 C.3       1     SN3    0.0000
      2 C         -10.6825   12.8307    2.4805 C.3       1     SN3    0.0000
      3 C          -9.4976   12.2476    1.6940 C.3       1     SN3    0.0000
      4 C          -8.8395   11.0708    2.4327 C.3       1     SN3    0.0000
      5 C          -7.6591   10.4833    1.6420 C.3       1     SN3    0.0000
      6 C          -6.9934    9.3139    2.3858 C.3       1     SN3    0.0000
      7 C          -5.8210    8.7187    1.5889 C.3       1     SN3    0.0000
      8 C          -5.1443    7.5600    2.3394 C.3       1     SN3    0.0000
      9 C          -3.9838    6.9535    1.5338 C.3       1     SN3    0.0000
     10 C          -3.2934    5.8080    2.2921 C.3       1     SN3    0.0000
     11 C          -2.1482    5.1867    1.4759 C.3       1     SN3    0.0000
     12 C          -1.4417    4.0567    2.2424 C.3       1     SN3    0.0000
     13 C          -0.3153    3.4176    1.4138 C.3       1     SN3    0.0000
     14 C           0.4096    2.3048    2.1882 C.3       1     SN3    0.0000
     15 C           1.5135    1.6448    1.3459 C.3       1     SN3    0.0000
     16 C           2.2581    0.5502    2.1274 C.3       1     SN3    0.0000
     17 C           3.3361   -0.1335    1.2709 C.3       1     SN3    0.0000
     18 C           4.0946   -1.2057    2.0550 C.3       1     SN3    0.0000
     19 O           5.0370   -1.8005    1.1965 O.3       1     SN3    0.0000
     20 C           5.6958   -2.9425    1.7058 C.3       1     SN3    0.0000
     21 C           6.7460   -3.3086    0.6559 C.3       1     SN3    0.0000
     22 C           6.3789   -2.6697    3.0416 C.3       1     SN3    0.0000
     23 O           4.6978   -3.9302    1.8484 O.3       1     SN3    0.0000
     24 C           5.0207   -5.2178    1.5025 C.ar      1     SN3    0.0000
     25 C           5.6308   -6.0214    2.3949 C.ar      1     SN3    0.0000
     26 C           5.9273   -7.2979    2.1178 C.ar      1     SN3    0.0000
     27 C           5.5648   -7.8188    0.9387 C.ar      1     SN3    0.0000
     28 C           4.8895   -7.0707    0.0485 C.ar      1     SN3    0.0000
     29 N           4.5395   -7.6334   -1.0358 N.ar      1     SN3    0.0000
     30 C           3.8876   -6.9669   -1.8853 C.ar      1     SN3    0.0000
     31 C           3.5498   -5.6898   -1.6872 C.ar      1     SN3    0.0000
     32 C           3.9038   -5.0666   -0.5602 C.ar      1     SN3    0.0000
     33 C           4.6052   -5.7801    0.3436 C.ar      1     SN3    0.0000
     34 C           2.7849   -5.1892   -2.8701 C.3       1     SN3    0.0000
     35 N           2.7854   -6.4136   -3.6955 N.ar      1     SN3    0.0000
     36 C           3.4097   -7.3359   -3.0850 C.ar      1     SN3    0.0000
     37 C           3.5040   -8.5258   -3.6933 C.ar      1     SN3    0.0000
     38 C           2.9431   -8.6799   -4.9089 C.ar      1     SN3    0.0000
     39 C           2.2988   -7.6498   -5.4906 C.ar      1     SN3    0.0000
     40 C           1.6746   -7.8712   -6.8439 C.3       1     SN3    0.0000
     41 O           2.4358   -8.7228   -7.6715 O.3       1     SN3    0.0000
     42 C           3.0638   -9.8091   -7.1540 C.2       1     SN3    0.0000
     43 O           3.6972  -10.6052   -7.8156 O.2       1     SN3    0.0000
     44 C           2.9823  -10.0038   -5.6400 C.3       1     SN3    0.0000
     45 O           4.1616  -10.7266   -5.2955 O.3       1     SN3    0.0000
     46 C           1.7692  -10.8889   -5.3258 C.3       1     SN3    0.0000
     47 C           1.5653  -11.1793   -3.8320 C.3       1     SN3    0.0000
     48 C           2.2235   -6.4613   -4.8250 C.ar      1     SN3    0.0000
     49 O           1.6419   -5.5042   -5.2922 O.2       1     SN3    0.0000
     50 H         -12.1907   14.4195    2.3239 H         1     SN3    0.0000
     51 H         -10.6036   14.8359    1.5853 H         1     SN3    0.0000
     52 H         -11.7182   13.6953    0.7458 H         1     SN3    0.0000
     53 H         -11.4475   12.0351    2.6482 H         1     SN3    0.0000
     54 H         -10.3332   13.1737    3.4837 H         1     SN3    0.0000
     55 H          -8.7388   13.0479    1.5231 H         1     SN3    0.0000
     56 H          -9.8525   11.9048    0.6930 H         1     SN3    0.0000
     57 H          -9.5998   10.2730    2.6086 H         1     SN3    0.0000
     58 H          -8.4806   11.4161    3.4313 H         1     SN3    0.0000
     59 H          -6.9023   11.2828    1.4589 H         1     SN3    0.0000
     60 H          -8.0203   10.1310    0.6467 H         1     SN3    0.0000
     61 H          -7.7514    8.5177    2.5773 H         1     SN3    0.0000
     62 H          -6.6244    9.6692    3.3772 H         1     SN3    0.0000
     63 H          -5.0678    9.5171    1.3869 H         1     SN3    0.0000
     64 H          -6.1932    8.3535    0.6023 H         1     SN3    0.0000
     65 H          -5.8993    6.7665    2.5532 H         1     SN3    0.0000
     66 H          -4.7610    7.9294    3.3202 H         1     SN3    0.0000
     67 H          -3.2350    7.7493    1.3069 H         1     SN3    0.0000
     68 H          -4.3712    6.5719    0.5593 H         1     SN3    0.0000
     69 H          -4.0443    5.0186    2.5339 H         1     SN3    0.0000
     70 H          -2.8920    6.1946    3.2589 H         1     SN3    0.0000
     71 H          -1.4050    5.9784    1.2186 H         1     SN3    0.0000
     72 H          -2.5545    4.7858    0.5169 H         1     SN3    0.0000
     73 H          -2.1872    3.2731    2.5174 H         1     SN3    0.0000
     74 H          -1.0187    4.4631    3.1918 H         1     SN3    0.0000
     75 H           0.4213    4.2034    1.1218 H         1     SN3    0.0000
     76 H          -0.7438    2.9957    0.4737 H         1     SN3    0.0000
     77 H          -0.3292    1.5289    2.5005 H         1     SN3    0.0000
     78 H           0.8573    2.7326    3.1166 H         1     SN3    0.0000
     79 H           2.2426    2.4224    1.0154 H         1     SN3    0.0000
     80 H           1.0600    1.2008    0.4279 H         1     SN3    0.0000
     81 H           1.5271   -0.2159    2.4798 H         1     SN3    0.0000
     82 H           2.7327    1.0000    3.0317 H         1     SN3    0.0000
     83 H           4.0583    0.6322    0.8990 H         1     SN3    0.0000
     84 H           2.8558   -0.6000    0.3775 H         1     SN3    0.0000
     85 H           3.3770   -1.9698    2.4293 H         1     SN3    0.0000
     86 H           4.6172   -0.7272    2.9137 H         1     SN3    0.0000
     87 H           7.3476   -4.2004    0.9411 H         1     SN3    0.0000
     88 H           7.4696   -2.4721    0.5212 H         1     SN3    0.0000
     89 H           6.2907   -3.4995   -0.3421 H         1     SN3    0.0000
     90 H           6.9996   -1.7461    2.9949 H         1     SN3    0.0000
     91 H           5.6538   -2.5617    3.8790 H         1     SN3    0.0000
     92 H           7.0603   -3.5035    3.3225 H         1     SN3    0.0000
     93 H           5.9074   -5.6206    3.3843 H         1     SN3    0.0000
     94 H           6.4499   -7.9212    2.8626 H         1     SN3    0.0000
     95 H           5.8042   -8.8751    0.7254 H         1     SN3    0.0000
     96 H           3.6166   -4.0126   -0.4288 H         1     SN3    0.0000
     97 H           3.3291   -4.3527   -3.3659 H         1     SN3    0.0000
     98 H           1.7543   -4.8872   -2.5726 H         1     SN3    0.0000
     99 H           4.0241   -9.3575   -3.1937 H         1     SN3    0.0000
    100 H           0.6465   -8.2832   -6.7335 H         1     SN3    0.0000
    101 H           1.5896   -6.9138   -7.4071 H         1     SN3    0.0000
    102 H           4.4484  -11.2360   -6.0598 H         1     SN3    0.0000
    103 H           0.8397  -10.4131   -5.7179 H         1     SN3    0.0000
    104 H           1.8789  -11.8610   -5.8650 H         1     SN3    0.0000
    105 H           0.7070  -11.8732   -3.6776 H         1     SN3    0.0000
    106 H           2.4638  -11.6568   -3.3800 H         1     SN3    0.0000
    107 H           1.3400  -10.2508   -3.2604 H         1     SN3    0.0000
@<TRIPOS>BOND
     1     1     2     1
     2     1    50     1
     3     1    51     1
     4     1    52     1
     5     2     3     1
     6     2    53     1
     7     2    54     1
     8     3     4     1
     9     3    55     1
    10     3    56     1
    11     4     5     1
    12     4    57     1
    13     4    58     1
    14     5     6     1
    15     5    59     1
    16     5    60     1
    17     6     7     1
    18     6    61     1
    19     6    62     1
    20     7     8     1
    21     7    63     1
    22     7    64     1
    23     8     9     1
    24     8    65     1
    25     8    66     1
    26     9    10     1
    27     9    67     1
    28     9    68     1
    29    10    11     1
    30    10    69     1
    31    10    70     1
    32    11    12     1
    33    11    71     1
    34    11    72     1
    35    12    13     1
    36    12    73     1
    37    12    74     1
    38    13    14     1
    39    13    75     1
    40    13    76     1
    41    14    15     1
    42    14    77     1
    43    14    78     1
    44    15    16     1
    45    15    79     1
    46    15    80     1
    47    16    17     1
    48    16    81     1
    49    16    82     1
    50    17    18     1
    51    17    83     1
    52    17    84     1
    53    18    19     1
    54    18    85     1
    55    18    86     1
    56    19    20     1
    57    20    21     1
    58    20    22     1
    59    20    23     1
    60    21    87     1
    61    21    88     1
    62    21    89     1
    63    22    90     1
    64    22    91     1
    65    22    92     1
    66    23    24     1
    67    24    25     1
    68    24    33     2
    69    25    26     2
    70    25    93     1
    71    26    27     1
    72    26    94     1
    73    27    28     2
    74    27    95     1
    75    28    29     1
    76    28    33     1
    77    29    30     2
    78    30    31     1
    79    30    36     1
    80    31    32     2
    81    31    34     1
    82    32    33     1
    83    32    96     1
    84    34    35     1
    85    34    97     1
    86    34    98     1
    87    35    36     1
    88    35    48     1
    89    36    37     2
    90    37    38     1
    91    37    99     1
    92    38    39     2
    93    38    44     1
    94    39    40     1
    95    39    48     1
    96    40    41     1
    97    40   100     1
    98    40   101     1
    99    41    42     1
   100    42    43     2
   101    42    44     1
   102    44    45     1
   103    44    46     1
   104    45   102     1
   105    46    47     1
   106    46   103     1
   107    46   104     1
   108    47   105     1
   109    47   106     1
   110    47   107     1
   111    48    49     2
