@<TRIPOS>MOLECULE
PTX 
175 181 0 0 0
SMALL
USER_CHARGES
#CGenFF output mol2 file
@<TRIPOS>ATOM
1	C1    -9.2850   -20.6620     3.3800	C.3	1	PTX1    -0.2730
2	C2    -9.3010   -19.3210     2.6340	C.3	1	PTX1    -0.1770
3	C3    -8.4150   -18.2720     3.3250	C.3	1	PTX1    -0.1810
4	C4    -8.4320   -16.9260     2.5820	C.3	1	PTX1    -0.1790
5	C5    -7.5490   -15.8750     3.2750	C.3	1	PTX1    -0.1800
6	C6    -7.5730   -14.5270     2.5370	C.3	1	PTX1    -0.1800
7	C7    -6.7000   -13.4720     3.2350	C.3	1	PTX1    -0.1800
8	C8    -6.7400   -12.1210     2.5030	C.3	1	PTX1    -0.1790
9	C9    -5.8940   -11.0920     3.2120	C.2	1	PTX1    -0.1510
10	C10    -4.8520   -10.4600     2.6510	C.2	1	PTX1    -0.1510
11	C11    -4.0210    -9.4170     3.3580	C.3	1	PTX1    -0.1790
12	C12    -4.2310    -8.0320     2.7280	C.3	1	PTX1    -0.1800
13	C13    -3.4180    -6.9420     3.4460	C.3	1	PTX1    -0.1800
14	C14    -3.6510    -5.5530     2.8280	C.3	1	PTX1    -0.1800
15	C15    -2.8620    -4.4560     3.5610	C.3	1	PTX1    -0.1800
16	C16    -3.1170    -3.0660     2.9530	C.3	1	PTX1    -0.1800
17	C17    -2.3500    -1.9610     3.6960	C.3	1	PTX1    -0.1800
18	C18    -2.6240    -0.5820     3.0920	C.3	1	PTX1     0.0360
19	C19    -1.8730     1.6800     3.2530	C.3	1	PTX1     0.3790
20	C20    -3.2550     2.1280     2.7690	C.3	1	PTX1    -0.2690
21	C21    -1.4590     2.6460     4.3680	C.3	1	PTX1    -0.2690
22	O1    -1.8840     0.3820     3.7990	O.3	1	PTX1    -0.4020
23	H1    -9.9310   -21.4120     2.8680	H	1	PTX1     0.0900
24	H2    -8.2540   -21.0820     3.4310	H	1	PTX1     0.0900
25	H3    -9.6600   -20.5470     4.4220	H	1	PTX1     0.0900
26	H4   -10.3510   -18.9460     2.5780	H	1	PTX1     0.0900
27	H5    -8.9470   -19.4790     1.5870	H	1	PTX1     0.0900
28	H6    -7.3670   -18.6520     3.3800	H	1	PTX1     0.0900
29	H7    -8.7710   -18.1210     4.3720	H	1	PTX1     0.0900
30	H8    -9.4800   -16.5490     2.5250	H	1	PTX1     0.0900
31	H9    -8.0740   -17.0770     1.5360	H	1	PTX1     0.0900
32	H10    -6.4990   -16.2490     3.3290	H	1	PTX1     0.0900
33	H11    -7.9050   -15.7280     4.3230	H	1	PTX1     0.0900
34	H12    -8.6240   -14.1560     2.4800	H	1	PTX1     0.0900
35	H13    -7.2130   -14.6720     1.4900	H	1	PTX1     0.0900
36	H14    -5.6450   -13.8340     3.2830	H	1	PTX1     0.0900
37	H15    -7.0560   -13.3370     4.2840	H	1	PTX1     0.0900
38	H16    -7.7870   -11.7400     2.4610	H	1	PTX1     0.0900
39	H17    -6.3950   -12.2560     1.4520	H	1	PTX1     0.0900
40	H18    -6.1720   -10.8550     4.2520	H	1	PTX1     0.1500
41	H19    -4.5780   -10.6860     1.6070	H	1	PTX1     0.1500
42	H20    -4.2880    -9.3760     4.4390	H	1	PTX1     0.0900
43	H21    -2.9480    -9.7140     3.2950	H	1	PTX1     0.0900
44	H22    -3.9390    -8.0620     1.6510	H	1	PTX1     0.0900
45	H23    -5.3160    -7.7720     2.7720	H	1	PTX1     0.0900
46	H24    -3.7050    -6.9180     4.5240	H	1	PTX1     0.0900
47	H25    -2.3320    -7.1950     3.3940	H	1	PTX1     0.0900
48	H26    -3.3510    -5.5710     1.7530	H	1	PTX1     0.0900
49	H27    -4.7390    -5.3120     2.8660	H	1	PTX1     0.0900
50	H28    -3.1560    -4.4460     4.6370	H	1	PTX1     0.0900
51	H29    -1.7720    -4.6870     3.5140	H	1	PTX1     0.0900
52	H30    -2.8120    -3.0710     1.8800	H	1	PTX1     0.0900
53	H31    -4.2100    -2.8430     2.9890	H	1	PTX1     0.0900
54	H32    -2.6470    -1.9580     4.7720	H	1	PTX1     0.0900
55	H33    -1.2570    -2.1820     3.6560	H	1	PTX1     0.0900
56	H34    -2.3360    -0.5770     2.0190	H	1	PTX1     0.0900
57	H35    -3.7120    -0.3670     3.1910	H	1	PTX1     0.0900
58	H36    -3.2390     3.2040     2.4800	H	1	PTX1     0.0900
59	H37    -4.0320     2.0110     3.5580	H	1	PTX1     0.0900
60	H38    -3.5910     1.5800     1.8600	H	1	PTX1     0.0900
61	H39    -0.5570     2.3260     4.9320	H	1	PTX1     0.0900
62	H40    -1.2860     3.6770     3.9910	H	1	PTX1     0.0900
63	H41    -2.2630     2.7180     5.1360	H	1	PTX1     0.0900
64	N     5.6860    10.1040    -4.1900	N.pl3	1	PTX1    -0.4050
65	C22     0.3560     1.5110     2.2860	C.3	1	PTX1     0.1750
66	C23     0.6960     0.0590     1.9350	C.3	1	PTX1    -0.2120
67	C24     0.5140    -0.3120     0.4740	C.3	1	PTX1     0.0200
68	C25    -0.3520     0.8600    -0.9330	C.3	1	PTX1    -0.1060
69	C26     1.1080     0.7030    -0.5030	C.3	1	PTX1     0.3660
70	C27     1.6790    -0.9500    -2.2290	C.2	1	PTX1     0.8850
71	C28     2.9090    -1.3080    -3.0420	C.3	1	PTX1    -0.3130
72	C29     1.7820     1.9400     0.1180	C.3	1	PTX1    -0.0740
73	C30     2.2520     2.9660    -0.9470	C.3	1	PTX1     0.1330
74	C31     0.8890     3.4200    -2.9260	C.2	1	PTX1     0.4590
75	C32     0.7780     3.2770    -4.2820	C.2	1	PTX1     0.0860
76	C33    -0.0490     4.0490    -5.0140	C.2	1	PTX1    -0.1100
77	C34    -0.1340     3.8980    -6.3460	C.2	1	PTX1    -0.1140
78	C35     0.6040     2.9700    -6.9700	C.2	1	PTX1    -0.1150
79	C36     1.4270     2.1910    -6.2530	C.2	1	PTX1    -0.1140
80	C37     1.5110     2.3440    -4.9220	C.2	1	PTX1    -0.1100
81	C38     3.7720     3.2510    -1.0880	C.3	1	PTX1     0.1860
82	C39     3.9490     4.4700    -2.0140	C.3	1	PTX1    -0.2120
83	C40     3.4840     5.7660    -1.3270	C.3	1	PTX1     0.2720
84	C41     5.0510     7.6460    -1.3170	C.2	1	PTX1     0.8530
85	C42     5.7090     8.5830    -2.3210	C.3	1	PTX1     0.1240
86	C43     4.8630     9.0950    -3.5020	C.3	1	PTX1     0.1180
87	C44     5.5730    10.5520    -5.4780	C.2	1	PTX1     0.3410
88	C45     4.4730    10.3550    -6.2630	C.2	1	PTX1    -0.1370
89	C46     3.2260    10.3140    -5.7590	C.2	1	PTX1    -0.0240
90	C47     2.1590    10.1130    -6.5480	C.2	1	PTX1    -0.1090
91	C48     2.3180     9.9610    -7.8700	C.2	1	PTX1    -0.1150
92	C49     3.5490    10.0310    -8.3940	C.2	1	PTX1    -0.1090
93	C50     4.6120    10.2340    -7.5990	C.2	1	PTX1    -0.0240
94	C51     4.4920     7.9490    -4.4310	C.2	1	PTX1    -0.0400
95	C52     5.4300     7.3100    -5.1540	C.2	1	PTX1    -0.1060
96	C53     5.1070     6.2830    -5.9560	C.2	1	PTX1    -0.1150
97	C54     3.8330     5.8720    -6.0460	C.2	1	PTX1    -0.1150
98	C55     2.8870     6.4990    -5.3320	C.2	1	PTX1    -0.1150
99	C56     3.2180     7.5240    -4.5340	C.2	1	PTX1    -0.1060
100	C57     3.3350     5.7320     0.1930	C.2	1	PTX1    -0.1530
101	C58     2.5810     6.9340     0.7290	C.3	1	PTX1    -0.2650
102	C59     3.6820     4.6270     0.9030	C.2	1	PTX1    -0.1130
103	C60     3.1870     4.2850     2.3090	C.3	1	PTX1     0.4320
104	C61     2.0130     5.2290     4.1930	C.2	1	PTX1     0.8340
105	C62     1.1730     6.4390     4.5520	C.3	1	PTX1    -0.3110
106	C63     2.4550     2.9150     2.3360	C.2	1	PTX1     0.3000
107	C64     1.2120     2.5420     1.4610	C.3	1	PTX1     0.0880
108	C65     0.3530     3.8140     1.2640	C.3	1	PTX1    -0.2630
109	C66     4.5690     3.5920     0.2010	C.3	1	PTX1     0.0160
110	C67     5.9420     4.2950    -0.0480	C.3	1	PTX1    -0.2690
111	C68     5.0880     2.3590     0.9910	C.3	1	PTX1    -0.2690
112	O2    -1.0240     1.7360     2.1240	O.3	1	PTX1    -0.4500
113	O3    -0.7930    -0.1250    -0.0180	O.3	1	PTX1    -0.3430
114	O4     1.9840     0.0830    -1.3980	O.3	1	PTX1    -0.4220
115	O5     0.6160    -1.5170    -2.3330	O.co2	1	PTX1    -0.6170
116	O6     1.7670     2.6260    -2.2210	O.3	1	PTX1    -0.3100
117	O7     0.2590     4.2820    -2.3440	O.co2	1	PTX1    -0.4960
118	O8     4.3350     2.1330    -1.7190	O.3	1	PTX1    -0.4600
119	O9     4.1220     6.8700    -1.9200	O.3	1	PTX1    -0.4190
120	O10     5.4070     7.6370    -0.1620	O.co2	1	PTX1    -0.6280
121	O11     6.1810     9.7050    -1.5920	O.3	1	PTX1    -0.6620
122	O12     6.5940    11.0080    -5.9390	O.2	1	PTX1    -0.4580
123	O13     2.3930     5.3060     2.8890	O.3	1	PTX1    -0.4270
124	O14     2.2860     4.3260     4.9490	O.co2	1	PTX1    -0.6250
125	O15     2.9330     2.0630     3.0580	O.2	1	PTX1    -0.5150
126	H42     0.5850     1.6520     3.3630	H	1	PTX1     0.0900
127	H43     1.7630    -0.1410     2.1920	H	1	PTX1     0.0900
128	H44     0.1180    -0.6550     2.5610	H	1	PTX1     0.0900
129	H45     0.8190    -1.3670     0.2900	H	1	PTX1     0.0900
130	H46    -0.6040     0.5910    -1.9780	H	1	PTX1     0.0900
131	H47    -0.7970     1.8400    -0.6630	H	1	PTX1     0.0900
132	H48     3.2830    -0.4200    -3.6010	H	1	PTX1     0.0900
133	H49     3.7180    -1.6800    -2.3730	H	1	PTX1     0.0900
134	H50     2.6770    -2.1060    -3.7820	H	1	PTX1     0.0900
135	H51     2.7050     1.4110     0.4340	H	1	PTX1     0.0900
136	H52     1.8040     3.9300    -0.6720	H	1	PTX1     0.0900
137	H53    -0.6780     4.8320    -4.5590	H	1	PTX1     0.1150
138	H54    -0.8120     4.5420    -6.9320	H	1	PTX1     0.1150
139	H55     0.5350     2.8470    -8.0630	H	1	PTX1     0.1150
140	H56     2.0360     1.4240    -6.7600	H	1	PTX1     0.1150
141	H57     2.2050     1.6760    -4.3850	H	1	PTX1     0.1150
142	H58     3.8080     1.9170    -2.4950	H	1	PTX1     0.2920
143	H59     3.4230     4.3410    -2.9870	H	1	PTX1     0.0900
144	H60     5.0060     4.5460    -2.3500	H	1	PTX1     0.0900
145	H61     2.4150     5.8770    -1.6520	H	1	PTX1     0.0900
146	H62     6.6170     8.0490    -2.6870	H	1	PTX1     0.0900
147	H63     6.4330     9.4120    -0.7080	H	1	PTX1     0.4210
148	H64     3.9720     9.5880    -3.0490	H	1	PTX1     0.0900
149	H65     6.5260    10.4150    -3.7030	H	1	PTX1     0.2740
150	H66     3.0280    10.4840    -4.6910	H	1	PTX1     0.1150
151	H67     1.1460    10.0870    -6.1130	H	1	PTX1     0.1150
152	H68     1.4430     9.7980    -8.5220	H	1	PTX1     0.1150
153	H69     3.6870     9.9170    -9.4830	H	1	PTX1     0.1150
154	H70     5.6010    10.2710    -8.0850	H	1	PTX1     0.1150
155	H71     6.4840     7.6250    -5.0920	H	1	PTX1     0.1150
156	H72     5.8910     5.7710    -6.5390	H	1	PTX1     0.1150
157	H73     3.5640     5.0250    -6.6990	H	1	PTX1     0.1150
158	H74     1.8380     6.1670    -5.3960	H	1	PTX1     0.1150
159	H75     2.4230     8.0140    -3.9470	H	1	PTX1     0.1150
160	H76     1.4930     6.7390     0.8410	H	1	PTX1     0.0900
161	H77     3.0110     7.3020     1.6850	H	1	PTX1     0.0900
162	H78     2.6570     7.8060     0.0430	H	1	PTX1     0.0900
163	H79     4.1110     4.2190     2.9320	H	1	PTX1     0.0900
164	H80     1.7600     7.3750     4.4110	H	1	PTX1     0.0900
165	H81     0.2630     6.4790     3.9110	H	1	PTX1     0.0900
166	H82     0.8460     6.3900     5.6150	H	1	PTX1     0.0900
167	H83    -0.4800     3.6560     0.5450	H	1	PTX1     0.0900
168	H84    -0.0810     4.1670     2.2240	H	1	PTX1     0.0900
169	H85     0.8950     4.6950     0.8820	H	1	PTX1     0.0900
170	H86     6.6210     3.6750    -0.6770	H	1	PTX1     0.0900
171	H87     5.8970     5.2840    -0.5380	H	1	PTX1     0.0900
172	H88     6.4710     4.5070     0.9100	H	1	PTX1     0.0900
173	H89     5.8500     1.7960     0.4060	H	1	PTX1     0.0900
174	H90     5.5770     2.6470     1.9480	H	1	PTX1     0.0900
175	H91     4.3640     1.5730     1.2510	H	1	PTX1     0.0900
@<TRIPOS>BOND
1	1	2	1
2	1	23	1
3	1	24	1
4	1	25	1
5	2	3	1
6	2	26	1
7	2	27	1
8	3	4	1
9	3	28	1
10	3	29	1
11	4	5	1
12	4	30	1
13	4	31	1
14	5	6	1
15	5	32	1
16	5	33	1
17	6	7	1
18	6	34	1
19	6	35	1
20	7	8	1
21	7	36	1
22	7	37	1
23	8	9	1
24	8	38	1
25	8	39	1
26	9	10	2
27	9	40	1
28	10	11	1
29	10	41	1
30	11	12	1
31	11	42	1
32	11	43	1
33	12	13	1
34	12	44	1
35	12	45	1
36	13	14	1
37	13	46	1
38	13	47	1
39	14	15	1
40	14	48	1
41	14	49	1
42	15	16	1
43	15	50	1
44	15	51	1
45	16	17	1
46	16	52	1
47	16	53	1
48	17	18	1
49	17	54	1
50	17	55	1
51	18	22	1
52	18	56	1
53	18	57	1
54	19	20	1
55	19	21	1
56	19	112	1
57	20	58	1
58	20	59	1
59	20	60	1
60	21	61	1
61	21	62	1
62	21	63	1
63	19	22	1
64	64	87	1
65	64	149	1
66	65	66	1
67	65	107	1
68	65	126	1
69	66	67	1
70	66	127	1
71	66	128	1
72	67	69	1
73	67	113	1
74	67	129	1
75	68	69	1
76	68	130	1
77	68	131	1
78	69	72	1
79	69	114	1
80	70	71	1
81	70	115	2
82	71	132	1
83	71	133	1
84	71	134	1
85	72	73	1
86	72	107	1
87	72	135	1
88	73	81	1
89	73	116	1
90	73	136	1
91	74	75	1
92	74	117	2
93	75	76	1
94	75	80	2
95	76	77	2
96	76	137	1
97	77	78	1
98	77	138	1
99	78	79	2
100	78	139	1
101	79	80	1
102	79	140	1
103	80	141	1
104	81	82	1
105	81	109	1
106	81	118	1
107	82	83	1
108	82	143	1
109	82	144	1
110	83	100	1
111	83	119	1
112	83	145	1
113	84	85	1
114	84	120	2
115	85	86	1
116	85	121	1
117	85	146	1
118	64	86	1
119	86	94	1
120	86	148	1
121	87	88	1
122	87	122	2
123	88	89	1
124	88	93	2
125	89	90	2
126	89	150	1
127	90	91	1
128	90	151	1
129	91	92	2
130	91	152	1
131	92	93	1
132	92	153	1
133	93	154	1
134	94	95	1
135	94	99	2
136	95	96	2
137	95	155	1
138	96	97	1
139	96	156	1
140	97	98	2
141	97	157	1
142	98	99	1
143	98	158	1
144	99	159	1
145	100	101	1
146	100	102	2
147	101	160	1
148	101	161	1
149	101	162	1
150	102	103	1
151	102	109	1
152	103	106	1
153	103	123	1
154	103	163	1
155	104	105	1
156	104	124	2
157	105	164	1
158	105	165	1
159	105	166	1
160	106	107	1
161	106	125	2
162	107	108	1
163	108	167	1
164	108	168	1
165	108	169	1
166	109	110	1
167	109	111	1
168	110	170	1
169	110	171	1
170	110	172	1
171	111	173	1
172	111	174	1
173	111	175	1
174	65	112	1
175	68	113	1
176	70	114	1
177	74	116	1
178	118	142	1
179	84	119	1
180	121	147	1
181	104	123	1
