@<TRIPOS>MOLECULE
PTX 
118 118 0 0 0
SMALL
USER_CHARGES
#CGenFF output mol2 file
@<TRIPOS>ATOM
1	C1    35.7760    -0.4720     1.8530	C.3	1	PTX1    -0.2730
2	C2    34.4950    -0.3820     1.0120	C.3	1	PTX1    -0.1770
3	C3    33.3040     0.1290     1.8380	C.3	1	PTX1    -0.1810
4	C4    32.0200     0.2240     0.9980	C.3	1	PTX1    -0.1790
5	C5    30.8280     0.7300     1.8270	C.3	1	PTX1    -0.1800
6	C6    29.5440     0.8320     0.9870	C.3	1	PTX1    -0.1800
7	C7    28.3510     1.3320     1.8190	C.3	1	PTX1    -0.1800
8	C8    27.0680     1.4430     0.9790	C.3	1	PTX1    -0.1800
9	C9    25.8760     1.9330     1.8160	C.3	1	PTX1    -0.1800
10	C10    24.5930     2.0560     0.9780	C.3	1	PTX1    -0.1800
11	C11    23.4000     2.5330     1.8230	C.3	1	PTX1    -0.1800
12	C12    22.1170     2.6710     0.9870	C.3	1	PTX1    -0.1800
13	C13    20.9250     3.1330     1.8410	C.3	1	PTX1    -0.1800
14	C14    19.6420     3.2870     1.0080	C.3	1	PTX1    -0.1800
15	C15    18.4510     3.7310     1.8730	C.3	1	PTX1    -0.1800
16	C16    17.1670     3.9050     1.0450	C.3	1	PTX1    -0.1800
17	C17    15.9760     4.3300     1.9210	C.3	1	PTX1    -0.1800
18	C18    14.6990     4.5210     1.1010	C.3	1	PTX1     0.0360
19	C19    12.3700     4.9730     1.4090	C.3	1	PTX1     0.3700
20	C20    11.4780     5.5170     2.5250	C.3	1	PTX1    -0.2690
21	C21    12.3270     5.9010     0.1990	C.3	1	PTX1    -0.2690
22	O1    13.6630     4.8980     1.9770	O.3	1	PTX1    -0.4020
23	H1    36.6300    -0.8440     1.2420	H	1	PTX1     0.0900
24	H2    36.0600     0.5250     2.2610	H	1	PTX1     0.0900
25	H3    35.6440    -1.1700     2.7120	H	1	PTX1     0.0900
26	H4    34.2580    -1.3900     0.5960	H	1	PTX1     0.0900
27	H5    34.6720     0.3020     0.1480	H	1	PTX1     0.0900
28	H6    33.5480     1.1340     2.2560	H	1	PTX1     0.0900
29	H7    33.1320    -0.5580     2.7010	H	1	PTX1     0.0900
30	H8    31.7770    -0.7810     0.5780	H	1	PTX1     0.0900
31	H9    32.1910     0.9130     0.1380	H	1	PTX1     0.0900
32	H10    31.0720     1.7330     2.2510	H	1	PTX1     0.0900
33	H11    30.6540     0.0380     2.6850	H	1	PTX1     0.0900
34	H12    29.3020    -0.1700     0.5590	H	1	PTX1     0.0900
35	H13    29.7160     1.5280     0.1320	H	1	PTX1     0.0900
36	H14    28.5960     2.3310     2.2520	H	1	PTX1     0.0900
37	H15    28.1770     0.6320     2.6700	H	1	PTX1     0.0900
38	H16    26.8260     0.4460     0.5390	H	1	PTX1     0.0900
39	H17    27.2410     2.1480     0.1320	H	1	PTX1     0.0900
40	H18    26.1210     2.9250     2.2630	H	1	PTX1     0.0900
41	H19    25.7000     1.2220     2.6590	H	1	PTX1     0.0900
42	H20    24.3510     1.0660     0.5240	H	1	PTX1     0.0900
43	H21    24.7650     2.7740     0.1420	H	1	PTX1     0.0900
44	H22    23.6460     3.5190     2.2860	H	1	PTX1     0.0900
45	H23    23.2240     1.8090     2.6540	H	1	PTX1     0.0900
46	H24    21.8750     1.6890     0.5150	H	1	PTX1     0.0900
47	H25    22.2890     3.4040     0.1630	H	1	PTX1     0.0900
48	H26    21.1720     4.1090     2.3220	H	1	PTX1     0.0900
49	H27    20.7490     2.3930     2.6580	H	1	PTX1     0.0900
50	H28    19.3990     2.3150     0.5170	H	1	PTX1     0.0900
51	H29    19.8130     4.0370     0.2000	H	1	PTX1     0.0900
52	H30    18.6980     4.6960     2.3750	H	1	PTX1     0.0900
53	H31    18.2740     2.9740     2.6740	H	1	PTX1     0.0900
54	H32    16.9230     2.9440     0.5320	H	1	PTX1     0.0900
55	H33    17.3380     4.6730     0.2540	H	1	PTX1     0.0900
56	H34    16.2240     5.2830     2.4460	H	1	PTX1     0.0900
57	H35    15.8000     3.5540     2.7040	H	1	PTX1     0.0900
58	H36    14.4410     3.5690     0.5850	H	1	PTX1     0.0900
59	H37    14.8690     5.3240     0.3500	H	1	PTX1     0.0900
60	H38    10.4310     5.6990     2.1950	H	1	PTX1     0.0900
61	H39    11.8610     6.4990     2.8870	H	1	PTX1     0.0900
62	H40    11.4570     4.8310     3.4030	H	1	PTX1     0.0900
63	H41    12.8190     6.8740     0.4230	H	1	PTX1     0.0900
64	H42    12.8190     5.4570    -0.6960	H	1	PTX1     0.0900
65	H43    11.2820     6.1340    -0.1030	H	1	PTX1     0.0900
66	C22    10.6790     3.3630     0.8990	C.3	1	PTX1     0.0360
67	C23    10.5360     1.9870     0.2470	C.3	1	PTX1    -0.1800
68	C24     9.0630     1.5770     0.0910	C.3	1	PTX1    -0.1800
69	C25     8.9130     0.2210    -0.6170	C.3	1	PTX1    -0.1800
70	C26     7.4410    -0.2070    -0.7330	C.3	1	PTX1    -0.1800
71	C27     7.2850    -1.5350    -1.4910	C.3	1	PTX1    -0.1800
72	C28     5.8170    -1.9830    -1.5710	C.3	1	PTX1    -0.1800
73	C29     5.6550    -3.2820    -2.3770	C.3	1	PTX1    -0.1220
74	C30     4.1910    -3.7510    -2.4230	C.3	1	PTX1    -0.1670
75	C31     4.0210    -5.0220    -3.2720	C.3	1	PTX1    -0.2740
76	C32     2.5650    -5.4760    -3.3000	C.2	1	PTX1    -0.0450
77	C33     1.7230    -5.0760    -4.2710	C.2	1	PTX1     0.0720
78	C34     2.1300    -4.1180    -5.3800	C.3	1	PTX1    -0.2410
79	C35     0.4370    -5.5190    -4.2900	C.2	1	PTX1     0.3430
80	C36     0.0030    -6.3540    -3.2980	C.2	1	PTX1    -0.0370
81	C37    -1.8260    -7.9090    -2.8590	C.3	1	PTX1     0.0120
82	C38     0.8400    -6.7520    -2.3090	C.2	1	PTX1    -0.0370
83	C39     0.8250    -7.5260     0.0140	C.3	1	PTX1     0.0120
84	C40     2.1320    -6.3030    -2.3070	C.2	1	PTX1     0.3740
85	O2    12.0460     3.6470     1.0510	O.3	1	PTX1    -0.4020
86	O3    -0.3120    -5.1640    -5.1820	O.2	1	PTX1    -0.2470
87	O4    -1.3140    -6.7460    -3.4650	O.3	1	PTX1    -0.3730
88	O5     0.3250    -7.5420    -1.3020	O.3	1	PTX1    -0.3730
89	O6     2.9160    -6.6340    -1.4390	O.2	1	PTX1    -0.2470
90	H44    10.1880     3.3430     1.8980	H	1	PTX1     0.0900
91	H45    10.1980     4.1300     0.2510	H	1	PTX1     0.0900
92	H46    11.0260     2.0030    -0.7570	H	1	PTX1     0.0900
93	H47    11.0690     1.2250     0.8650	H	1	PTX1     0.0900
94	H48     8.5870     1.5250     1.0990	H	1	PTX1     0.0900
95	H49     8.5210     2.3590    -0.4930	H	1	PTX1     0.0900
96	H50     9.3610     0.2870    -1.6370	H	1	PTX1     0.0900
97	H51     9.4800    -0.5580    -0.0530	H	1	PTX1     0.0900
98	H52     7.0050    -0.3100     0.2890	H	1	PTX1     0.0900
99	H53     6.8640     0.5880    -1.2630	H	1	PTX1     0.0900
100	H54     7.6940    -1.4190    -2.5230	H	1	PTX1     0.0900
101	H55     7.8840    -2.3270    -0.9810	H	1	PTX1     0.0900
102	H56     5.4210    -2.1350    -0.5390	H	1	PTX1     0.0900
103	H57     5.2080    -1.1770    -2.0470	H	1	PTX1     0.0900
104	H58     6.0230    -3.1180    -3.4180	H	1	PTX1     0.0900
105	H59     6.2840    -4.0830    -1.9220	H	1	PTX1     0.0900
106	H60     3.8350    -3.9450    -1.3840	H	1	PTX1     0.0900
107	H61     3.5550    -2.9370    -2.8440	H	1	PTX1     0.0900
108	H62     4.4180    -4.8610    -4.2970	H	1	PTX1     0.0900
109	H63     4.6940    -5.8270    -2.8990	H	1	PTX1     0.0900
110	H64     3.0910    -3.5880    -5.2240	H	1	PTX1     0.0900
111	H65     2.1980    -4.6580    -6.3520	H	1	PTX1     0.0900
112	H66     1.3940    -3.2880    -5.4820	H	1	PTX1     0.0900
113	H67    -2.7900    -8.1490    -3.3600	H	1	PTX1     0.0900
114	H68    -1.1370    -8.7690    -3.0150	H	1	PTX1     0.0900
115	H69    -2.0600    -7.7280    -1.7880	H	1	PTX1     0.0900
116	H70     0.0350    -7.9510     0.6740	H	1	PTX1     0.0900
117	H71     1.7080    -8.1950     0.1120	H	1	PTX1     0.0900
118	H72     1.0230    -6.4840     0.3500	H	1	PTX1     0.0900
@<TRIPOS>BOND
1	1	2	1
2	1	23	1
3	1	24	1
4	1	25	1
5	2	3	1
6	2	26	1
7	2	27	1
8	3	4	1
9	3	28	1
10	3	29	1
11	4	5	1
12	4	30	1
13	4	31	1
14	5	6	1
15	5	32	1
16	5	33	1
17	6	7	1
18	6	34	1
19	6	35	1
20	7	8	1
21	7	36	1
22	7	37	1
23	8	9	1
24	8	38	1
25	8	39	1
26	9	10	1
27	9	40	1
28	9	41	1
29	10	11	1
30	10	42	1
31	10	43	1
32	11	12	1
33	11	44	1
34	11	45	1
35	12	13	1
36	12	46	1
37	12	47	1
38	13	14	1
39	13	48	1
40	13	49	1
41	14	15	1
42	14	50	1
43	14	51	1
44	15	16	1
45	15	52	1
46	15	53	1
47	16	17	1
48	16	54	1
49	16	55	1
50	17	18	1
51	17	56	1
52	17	57	1
53	18	22	1
54	18	58	1
55	18	59	1
56	19	20	1
57	19	21	1
58	19	85	1
59	20	60	1
60	20	61	1
61	20	62	1
62	21	63	1
63	21	64	1
64	21	65	1
65	19	22	1
66	66	67	1
67	66	90	1
68	66	91	1
69	67	68	1
70	67	92	1
71	67	93	1
72	68	69	1
73	68	94	1
74	68	95	1
75	69	70	1
76	69	96	1
77	69	97	1
78	70	71	1
79	70	98	1
80	70	99	1
81	71	72	1
82	71	100	1
83	71	101	1
84	72	73	1
85	72	102	1
86	72	103	1
87	73	74	1
88	73	104	1
89	73	105	1
90	74	75	1
91	74	106	1
92	74	107	1
93	75	76	1
94	75	108	1
95	75	109	1
96	76	77	2
97	76	84	1
98	77	78	1
99	77	79	1
100	78	110	1
101	78	111	1
102	78	112	1
103	79	80	1
104	79	86	2
105	80	82	2
106	80	87	1
107	81	113	1
108	81	114	1
109	81	115	1
110	82	84	1
111	82	88	1
112	83	116	1
113	83	117	1
114	83	118	1
115	84	89	2
116	66	85	1
117	81	87	1
118	83	88	1
