@<TRIPOS>MOLECULE
PTX 
139 146 0 0 0
SMALL
USER_CHARGES
#CGenFF output mol2 file
@<TRIPOS>ATOM
1	C1     1.6790     1.4450    -2.3650	C.3	1	PTX1     0.4000
2	C2     1.0240     2.6490    -3.0380	C.3	1	PTX1    -0.2690
3	C3     2.8410     0.9120    -3.1980	C.3	1	PTX1    -0.2690
4	C4     0.0280    -0.1310    -3.1020	C.3	1	PTX1     0.2070
5	C5    -1.4540     0.2420    -2.9980	C.3	1	PTX1    -0.2160
6	C6    -2.2790    -0.4580    -4.0870	C.3	1	PTX1    -0.1850
7	C7    -2.1090    -1.9820    -4.0060	C.3	1	PTX1    -0.1340
8	C8    -0.6250    -2.3670    -4.0930	C.3	1	PTX1    -0.1850
9	C9     0.1880    -1.6520    -3.0040	C.3	1	PTX1    -0.2160
10	O1     0.7300     0.4560    -2.0420	O.3	1	PTX1    -0.4560
11	H1     0.6490     2.4280    -4.0610	H	1	PTX1     0.0900
12	H2     0.1690     3.0330    -2.4370	H	1	PTX1     0.0900
13	H3     1.7560     3.4830    -3.1430	H	1	PTX1     0.0900
14	H4     2.5690     0.7920    -4.2690	H	1	PTX1     0.0900
15	H5     3.2010    -0.0820    -2.8530	H	1	PTX1     0.0900
16	H6     3.7000     1.6210    -3.1730	H	1	PTX1     0.0900
17	H7     0.4250     0.1980    -4.0860	H	1	PTX1     0.0900
18	H8    -1.8450    -0.0480    -1.9930	H	1	PTX1     0.0900
19	H9    -1.5820     1.3470    -3.0900	H	1	PTX1     0.0900
20	H10    -3.3580    -0.1910    -3.9800	H	1	PTX1     0.0900
21	H11    -1.9500    -0.1000    -5.0910	H	1	PTX1     0.0900
22	H12    -2.5330    -2.3520    -3.0420	H	1	PTX1     0.0900
23	H13    -2.6800    -2.4750    -4.8280	H	1	PTX1     0.0900
24	H14    -0.5130    -3.4720    -3.9880	H	1	PTX1     0.0900
25	H15    -0.2270    -2.0900    -5.0980	H	1	PTX1     0.0900
26	H16    -0.1490    -2.0020    -1.9990	H	1	PTX1     0.0900
27	H17     1.2650    -1.9270    -3.1020	H	1	PTX1     0.0900
28	N     0.7010     0.8020     0.9430	N.pl3	1	PTX1    -0.4040
29	C10     9.0220    -2.8610    -5.5630	C.3	1	PTX1    -0.3110
30	C11     9.1630    -3.3460    -4.1340	C.2	1	PTX1     0.8340
31	C12     8.8050    -2.5730    -1.8790	C.3	1	PTX1     0.4320
32	C13    10.2760    -2.4110    -1.4080	C.2	1	PTX1     0.2970
33	C14    11.0170    -1.0440    -1.2610	C.3	1	PTX1     0.0810
34	C15    10.5910    -0.1290    -2.4330	C.3	1	PTX1    -0.2630
35	C16    12.5420    -1.3050    -1.4430	C.3	1	PTX1     0.1660
36	C17    13.2950    -1.6220    -0.1550	C.3	1	PTX1    -0.2010
37	C18    13.2210    -0.4950     0.8600	C.3	1	PTX1     0.0150
38	C19    12.5160     1.3710     0.5010	C.3	1	PTX1    -0.1060
39	C20    11.8270     0.1130     1.0360	C.3	1	PTX1     0.3660
40	C21    12.1410     0.6790     3.4060	C.2	1	PTX1     0.8850
41	C22    11.3590     0.4930     4.6940	C.3	1	PTX1    -0.3130
42	C23    10.6970    -0.4860     0.1750	C.3	1	PTX1    -0.0740
43	C24     9.3490     0.2640     0.3180	C.3	1	PTX1     0.1330
44	C25     9.3410     2.7150     0.4210	C.2	1	PTX1     0.4590
45	C26     9.4870     3.8460     1.1780	C.2	1	PTX1     0.0860
46	C27     9.3070     5.0780     0.6610	C.2	1	PTX1    -0.1100
47	C28     9.4570     6.1730     1.4240	C.2	1	PTX1    -0.1140
48	C29     9.7910     6.0570     2.7170	C.2	1	PTX1    -0.1150
49	C30     9.9740     4.8370     3.2430	C.2	1	PTX1    -0.1140
50	C31     9.8210     3.7440     2.4790	C.2	1	PTX1    -0.1100
51	C32     8.1660    -0.4910     0.9800	C.3	1	PTX1     0.1860
52	C33     6.8960     0.3540     0.7870	C.3	1	PTX1    -0.2120
53	C34     6.4190     0.3530    -0.6790	C.3	1	PTX1     0.2720
54	C35     4.2850     1.3140    -0.1970	C.2	1	PTX1     0.8500
55	C36     2.7910     0.9880    -0.2750	C.3	1	PTX1     0.1830
56	C37     2.1410     1.0420     1.1260	C.3	1	PTX1     0.1270
57	C38    -0.2070     0.3180     1.8450	C.2	1	PTX1     0.3410
58	C39     0.0220     0.2150     3.1870	C.2	1	PTX1    -0.1370
59	C40     0.8120     1.0760     3.8550	C.2	1	PTX1    -0.0240
60	C41     1.0290     0.9490     5.1740	C.2	1	PTX1    -0.1090
61	C42     0.4420    -0.0410     5.8610	C.2	1	PTX1    -0.1150
62	C43    -0.3720    -0.8910     5.2180	C.2	1	PTX1    -0.1090
63	C44    -0.5840    -0.7560     3.8990	C.2	1	PTX1    -0.0240
64	C45     2.8030    -0.0190     1.9890	C.2	1	PTX1    -0.0400
65	C46     2.5330    -1.3260     1.8190	C.2	1	PTX1    -0.1060
66	C47     3.1200    -2.2600     2.5830	C.2	1	PTX1    -0.1150
67	C48     3.9980    -1.8990     3.5300	C.2	1	PTX1    -0.1150
68	C49     4.2920    -0.6020     3.7000	C.2	1	PTX1    -0.1150
69	C50     3.6990     0.3260     2.9330	C.2	1	PTX1    -0.1060
70	C51     7.0410    -0.7270    -1.5730	C.2	1	PTX1    -0.1530
71	C52     6.7550    -0.4840    -3.0420	C.3	1	PTX1    -0.2650
72	C53     7.8420    -1.7020    -1.0750	C.2	1	PTX1    -0.1130
73	C54     7.8210    -1.9060     0.4400	C.3	1	PTX1     0.0160
74	C55     8.6350    -3.0730     1.0640	C.3	1	PTX1    -0.2690
75	C56     6.3810    -2.4100     0.7820	C.3	1	PTX1    -0.2690
76	O2     9.6060    -4.4240    -3.8100	O.co2	1	PTX1    -0.6250
77	O3     8.7220    -2.3820    -3.2800	O.3	1	PTX1    -0.4270
78	O4    10.8630    -3.4290    -1.1030	O.2	1	PTX1    -0.5150
79	O5    13.1800    -0.2050    -2.0580	O.3	1	PTX1    -0.6420
80	O6    13.7640     0.7120     0.3770	O.3	1	PTX1    -0.3430
81	O7    11.4370     0.1300     2.3780	O.3	1	PTX1    -0.4220
82	O8    13.2130     1.2330     3.3430	O.co2	1	PTX1    -0.6170
83	O9     9.5350     1.4790     0.9990	O.3	1	PTX1    -0.3100
84	O10     9.0410     2.7960    -0.7540	O.co2	1	PTX1    -0.4960
85	O11     8.4430    -0.5610     2.3530	O.3	1	PTX1    -0.4600
86	O12     5.0140     0.3170    -0.7690	O.3	1	PTX1    -0.4320
87	O13     4.7370     2.3010     0.3380	O.co2	1	PTX1    -0.6230
88	O14     2.1190     1.9140    -1.1050	O.3	1	PTX1    -0.5060
89	O15    -1.1950    -0.1660     1.3420	O.2	1	PTX1    -0.4580
90	H18     9.3780    -3.6350    -6.2800	H	1	PTX1     0.0900
91	H19     7.9550    -2.6400    -5.7940	H	1	PTX1     0.0900
92	H20     9.6270    -1.9390    -5.7190	H	1	PTX1     0.0900
93	H21     8.4630    -3.6150    -1.6730	H	1	PTX1     0.0900
94	H22    10.9440     0.9170    -2.3010	H	1	PTX1     0.0900
95	H23    10.9810    -0.5080    -3.4050	H	1	PTX1     0.0900
96	H24     9.5000    -0.0460    -2.5810	H	1	PTX1     0.0900
97	H25    12.7010    -2.1390    -2.1690	H	1	PTX1     0.0900
98	H26    14.0460    -0.0560    -1.6710	H	1	PTX1     0.4000
99	H27    12.8830    -2.5430     0.3170	H	1	PTX1     0.0900
100	H28    14.3660    -1.8370    -0.3840	H	1	PTX1     0.0900
101	H29    13.7350    -0.7750     1.8070	H	1	PTX1     0.0900
102	H30    12.5840     2.2400     1.1870	H	1	PTX1     0.0900
103	H31    12.1540     1.6930    -0.4970	H	1	PTX1     0.0900
104	H32    10.3330     0.9140     4.5970	H	1	PTX1     0.0900
105	H33    11.2830    -0.5900     4.9430	H	1	PTX1     0.0900
106	H34    11.8630     1.0100     5.5410	H	1	PTX1     0.0900
107	H35    10.5830    -1.4040     0.7870	H	1	PTX1     0.0900
108	H36     9.0180     0.4990    -0.7030	H	1	PTX1     0.0900
109	H37     9.0320     5.2380    -0.3940	H	1	PTX1     0.1150
110	H38     9.3070     7.1750     0.9870	H	1	PTX1     0.1150
111	H39     9.9160     6.9560     3.3420	H	1	PTX1     0.1150
112	H40    10.2490     4.7340     4.3060	H	1	PTX1     0.1150
113	H41     9.9840     2.7680     2.9640	H	1	PTX1     0.1150
114	H42     8.6310     0.3270     2.6740	H	1	PTX1     0.2920
115	H43     7.0540     1.3940     1.1510	H	1	PTX1     0.0900
116	H44     6.0990    -0.0140     1.4700	H	1	PTX1     0.0900
117	H45     6.7560     1.3170    -1.1370	H	1	PTX1     0.0900
118	H46     2.6640    -0.0480    -0.6590	H	1	PTX1     0.0900
119	H47     2.2840     2.0750     1.5180	H	1	PTX1     0.0900
120	H48     0.3400     0.9040    -0.0050	H	1	PTX1     0.2740
121	H49     1.2790     1.9390     3.3600	H	1	PTX1     0.1150
122	H50     1.6770     1.6700     5.7000	H	1	PTX1     0.1150
123	H51     0.6160    -0.1470     6.9440	H	1	PTX1     0.1150
124	H52    -0.8660    -1.7030     5.7780	H	1	PTX1     0.1150
125	H53    -1.2550    -1.4920     3.4250	H	1	PTX1     0.1150
126	H54     1.8190    -1.6480     1.0430	H	1	PTX1     0.1150
127	H55     2.8840    -3.3270     2.4300	H	1	PTX1     0.1150
128	H56     4.4840    -2.6640     4.1570	H	1	PTX1     0.1150
129	H57     5.0220    -0.2980     4.4690	H	1	PTX1     0.1150
130	H58     3.9580     1.3870     3.0860	H	1	PTX1     0.1150
131	H59     7.5970     0.0230    -3.5600	H	1	PTX1     0.0900
132	H60     6.4810    -1.4240    -3.5670	H	1	PTX1     0.0900
133	H61     5.8680     0.1680    -3.1890	H	1	PTX1     0.0900
134	H62     8.4380    -3.1570     2.1570	H	1	PTX1     0.0900
135	H63     8.3670    -4.0590     0.6230	H	1	PTX1     0.0900
136	H64     9.7320    -3.0340     1.0010	H	1	PTX1     0.0900
137	H65     6.2120    -2.4380     1.8820	H	1	PTX1     0.0900
138	H66     5.5430    -1.8370     0.3430	H	1	PTX1     0.0900
139	H67     6.2030    -3.4380     0.3930	H	1	PTX1     0.0900
@<TRIPOS>BOND
1	1	2	1
2	1	3	1
3	1	10	1
4	2	11	1
5	2	12	1
6	2	13	1
7	3	14	1
8	3	15	1
9	3	16	1
10	4	5	1
11	4	9	1
12	4	17	1
13	5	6	1
14	5	18	1
15	5	19	1
16	6	7	1
17	6	20	1
18	6	21	1
19	7	8	1
20	7	22	1
21	7	23	1
22	8	9	1
23	8	24	1
24	8	25	1
25	9	26	1
26	9	27	1
27	4	10	1
28	28	57	1
29	28	120	1
30	29	30	1
31	29	90	1
32	29	91	1
33	29	92	1
34	30	76	2
35	30	77	1
36	31	32	1
37	31	72	1
38	31	93	1
39	32	33	1
40	32	78	2
41	33	34	1
42	33	35	1
43	33	42	1
44	34	94	1
45	34	95	1
46	34	96	1
47	35	36	1
48	35	79	1
49	35	97	1
50	36	37	1
51	36	99	1
52	36	100	1
53	37	39	1
54	37	80	1
55	37	101	1
56	38	39	1
57	38	102	1
58	38	103	1
59	39	42	1
60	39	81	1
61	40	41	1
62	40	82	2
63	41	104	1
64	41	105	1
65	41	106	1
66	42	43	1
67	42	107	1
68	43	51	1
69	43	83	1
70	43	108	1
71	44	45	1
72	44	84	2
73	45	46	1
74	45	50	2
75	46	47	2
76	46	109	1
77	47	48	1
78	47	110	1
79	48	49	2
80	48	111	1
81	49	50	1
82	49	112	1
83	50	113	1
84	51	52	1
85	51	73	1
86	51	85	1
87	52	53	1
88	52	115	1
89	52	116	1
90	53	70	1
91	53	86	1
92	53	117	1
93	54	55	1
94	54	87	2
95	55	56	1
96	55	88	1
97	55	118	1
98	28	56	1
99	56	64	1
100	56	119	1
101	57	58	1
102	57	89	2
103	58	59	1
104	58	63	2
105	59	60	2
106	59	121	1
107	60	61	1
108	60	122	1
109	61	62	2
110	61	123	1
111	62	63	1
112	62	124	1
113	63	125	1
114	64	65	1
115	64	69	2
116	65	66	2
117	65	126	1
118	66	67	1
119	66	127	1
120	67	68	2
121	67	128	1
122	68	69	1
123	68	129	1
124	69	130	1
125	70	71	1
126	70	72	2
127	71	131	1
128	71	132	1
129	71	133	1
130	72	73	1
131	73	74	1
132	73	75	1
133	74	134	1
134	74	135	1
135	74	136	1
136	75	137	1
137	75	138	1
138	75	139	1
139	31	77	1
140	79	98	1
141	38	80	1
142	40	81	1
143	44	83	1
144	85	114	1
145	54	86	1
146	1	88	1
