@<TRIPOS>MOLECULE
PTX
133 140 1 0 0
SMALL
USER_CHARGES


@<TRIPOS>ATOM
      1 C          -0.4078   -0.5622    4.4117 C.3       1     PTL    0.0000
      2 O          -1.2181   -0.0572    3.3737 O.3       1     PTL    0.0000
      3 C          -0.5266    0.5632    2.2928 C.3       1     PTL    0.0000
      4 C          -1.6508    1.0699    1.3806 C.3       1     PTL    0.0000
      5 O           0.1413   -0.5110    1.6420 O.3       1     PTX    0.0000
      6 C           0.8198   -0.1915    0.4433 C.3       1     PTX    0.0000
      7 C           2.3089   -0.5651    0.5395 C.2       1     PTX    0.0000
      8 O           2.7157   -1.5934    1.0309 O.2       1     PTX    0.0000
      9 O           3.0559    0.4212   -0.0312 O.3       1     PTX    0.0000
     10 C           4.4634    0.3864   -0.1249 C.3       1     PTX    0.0000
     11 C           5.1095    1.4492    0.7831 C.3       1     PTX    0.0000
     12 C           6.5431    1.0566    1.1994 C.3       1     PTX    0.0000
     13 O           6.9922    1.9758    2.1589 O.3       1     PTX    0.0000
     14 C           7.4652    1.2183   -0.0382 C.3       1     PTX    0.0000
     15 O           7.5243    2.5857   -0.3587 O.3       1     PTX    0.0000
     16 C           7.0138    3.1281   -1.5174 C.2       1     PTX    0.0000
     17 O           6.4368    2.4179   -2.3176 O.2       1     PTX    0.0000
     18 C           7.1619    4.4665   -1.7625 C.ar      1     PTX    0.0000
     19 C           6.6862    5.0442   -2.8836 C.ar      1     PTX    0.0000
     20 C           6.8450    6.3596   -3.1019 C.ar      1     PTX    0.0000
     21 C           7.4828    7.1228   -2.2027 C.ar      1     PTX    0.0000
     22 C           7.9600    6.5615   -1.0827 C.ar      1     PTX    0.0000
     23 C           7.7987    5.2465   -0.8670 C.ar      1     PTX    0.0000
     24 C           8.8945    0.6225    0.0408 C.3       1     PTX    0.0000
     25 C           9.1097   -0.7521   -0.6949 C.3       1     PTX    0.0000
     26 C           8.3380   -0.9133   -2.0251 C.3       1     PTX    0.0000
     27 C           8.6553   -1.8927    0.2719 C.2       1     PTX    0.0000
     28 O           9.4847   -2.4087    0.9925 O.2       1     PTX    0.0000
     29 C           7.1953   -2.4024    0.4237 C.3       1     PTX    0.0000
     30 O           6.8711   -3.2556   -0.6601 O.3       1     PTX    0.0000
     31 C           7.3367   -4.5342   -0.7002 C.2       1     PTX    0.0000
     32 C           6.8712   -5.2003   -1.9804 C.3       1     PTX    0.0000
     33 O           8.0184   -5.0648    0.1463 O.2       1     PTX    0.0000
     34 C           6.1934   -1.2695    0.6390 C.2       1     PTX    0.0000
     35 C           5.1505   -0.9757   -0.1781 C.2       1     PTX    0.0000
     36 C           4.6562   -1.8313   -1.3283 C.3       1     PTX    0.0000
     37 C           6.4378   -0.3531    1.8427 C.3       1     PTX    0.0000
     38 C           5.2178   -0.5116    2.8043 C.3       1     PTX    0.0000
     39 C           7.5582   -0.7304    2.8554 C.3       1     PTX    0.0000
     40 C          10.6103   -0.9877   -1.0381 C.3       1     PTX    0.0000
     41 O          10.9103   -0.5489   -2.3465 O.3       1     PTX    0.0000
     42 C          11.5965   -0.3215   -0.0845 C.3       1     PTX    0.0000
     43 C          11.4516    1.1890   -0.0546 C.3       1     PTX    0.0000
     44 O          11.6734    1.7840   -1.3126 O.3       1     PTX    0.0000
     45 C          10.3529    2.2970   -1.3480 C.3       1     PTX    0.0000
     46 C          10.0071    1.6913    0.0152 C.3       1     PTX    0.0000
     47 O           9.8251    2.5836    1.0755 O.3       1     PTX    0.0000
     48 C          10.5558    3.7085    1.3063 C.2       1     PTX    0.0000
     49 C          10.0330    4.3876    2.5593 C.3       1     PTX    0.0000
     50 O          11.4755    4.1308    0.6451 O.2       1     PTX    0.0000
     51 C           0.1592   -0.9041   -0.7585 C.3       1     PTX    0.0000
     52 N           0.9933   -0.6568   -1.9439 N.am      1     PTX    0.0000
     53 C           0.9429   -1.2702   -3.1685 C.2       1     PTX    0.0000
     54 O           1.9505   -1.1170   -3.8202 O.2       1     PTX    0.0000
     55 C          -0.0345   -2.1297   -3.5840 C.ar      1     PTX    0.0000
     56 C           0.2673   -3.1007   -4.4715 C.ar      1     PTX    0.0000
     57 C          -0.6564   -3.9768   -4.8980 C.ar      1     PTX    0.0000
     58 C          -1.9184   -3.8952   -4.4546 C.ar      1     PTX    0.0000
     59 C          -2.2451   -2.9216   -3.5939 C.ar      1     PTX    0.0000
     60 C          -1.3141   -2.0507   -3.1729 C.ar      1     PTX    0.0000
     61 C          -0.0276   -2.3894   -0.4909 C.ar      1     PTX    0.0000
     62 C           0.9377   -3.2918   -0.7460 C.ar      1     PTX    0.0000
     63 C           0.7525   -4.5994   -0.5088 C.ar      1     PTX    0.0000
     64 C          -0.4129   -5.0318   -0.0060 C.ar      1     PTX    0.0000
     65 C          -1.3860   -4.1476    0.2572 C.ar      1     PTX    0.0000
     66 C          -1.1897   -2.8423    0.0160 C.ar      1     PTX    0.0000
     67 C           0.4210    1.6690    2.7752 C.ar      1     PTL    0.0000
     68 C           0.0334    2.9567    2.8554 C.ar      1     PTL    0.0000
     69 C           0.8641    3.9219    3.2801 C.ar      1     PTL    0.0000
     70 C           2.1160    3.6189    3.6508 C.ar      1     PTL    0.0000
     71 C           2.5210    2.3429    3.5953 C.ar      1     PTL    0.0000
     72 C           1.6819    1.3900    3.1611 C.ar      1     PTL    0.0000
     73 H          -1.0714   -1.1049    5.1215 H         1     PTL    0.0000
     74 H           0.3418   -1.2838    4.0215 H         1     PTL    0.0000
     75 H           0.0757    0.2674    4.9710 H         1     PTL    0.0000
     76 H          -1.2845    1.6886    0.5321 H         1     PTL    0.0000
     77 H          -2.3958    1.6824    1.9366 H         1     PTL    0.0000
     78 H          -2.2351    0.2238    0.9531 H         1     PTL    0.0000
     79 H           0.7811    0.9093    0.2743 H         1     PTX    0.0000
     80 H           4.6625    0.7670   -1.1621 H         1     PTX    0.0000
     81 H           5.0828    2.4469    0.2888 H         1     PTX    0.0000
     82 H           4.4872    1.6382    1.6836 H         1     PTX    0.0000
     83 H           7.0880    2.8375    1.7417 H         1     PTX    0.0000
     84 H           6.9643    0.6967   -0.8665 H         1     PTX    0.0000
     85 H           6.1541    4.4700   -3.6600 H         1     PTX    0.0000
     86 H           6.4503    6.8180   -4.0246 H         1     PTX    0.0000
     87 H           7.6131    8.2030   -2.3822 H         1     PTX    0.0000
     88 H           8.4850    7.1833   -0.3377 H         1     PTX    0.0000
     89 H           8.2085    4.8400    0.0714 H         1     PTX    0.0000
     90 H           9.0377    0.3647    1.1093 H         1     PTX    0.0000
     91 H           8.4824   -0.0446   -2.7046 H         1     PTX    0.0000
     92 H           8.6504   -1.8353   -2.5666 H         1     PTX    0.0000
     93 H           7.2455   -1.0118   -1.9083 H         1     PTX    0.0000
     94 H           7.1136   -3.0138    1.3532 H         1     PTX    0.0000
     95 H           7.2518   -4.6430   -2.8663 H         1     PTX    0.0000
     96 H           7.2475   -6.2463   -2.0411 H         1     PTX    0.0000
     97 H           5.7586   -5.2290   -2.0195 H         1     PTX    0.0000
     98 H           5.3460   -1.8385   -2.1976 H         1     PTX    0.0000
     99 H           4.4376   -2.8704   -0.9982 H         1     PTX    0.0000
    100 H           3.6910   -1.4566   -1.7291 H         1     PTX    0.0000
    101 H           5.2760    0.1873    3.6693 H         1     PTX    0.0000
    102 H           4.2265   -0.3393    2.3542 H         1     PTX    0.0000
    103 H           5.1414   -1.5466    3.2088 H         1     PTX    0.0000
    104 H           7.5932   -0.0115    3.7049 H         1     PTX    0.0000
    105 H           7.3975   -1.7364    3.3040 H         1     PTX    0.0000
    106 H           8.5985   -0.7660    2.5026 H         1     PTX    0.0000
    107 H          10.8260   -2.0836   -1.0729 H         1     PTX    0.0000
    108 H          11.7825   -0.1501   -2.3782 H         1     PTX    0.0000
    109 H          11.4525   -0.7032    0.9524 H         1     PTX    0.0000
    110 H          12.6424   -0.5820   -0.3743 H         1     PTX    0.0000
    111 H          12.1439    1.6418    0.6901 H         1     PTX    0.0000
    112 H          10.3523    3.4029   -1.4238 H         1     PTX    0.0000
    113 H           9.7908    1.8490   -2.1937 H         1     PTX    0.0000
    114 H           8.9413    4.5895    2.4722 H         1     PTX    0.0000
    115 H          10.2109    3.7411    3.4484 H         1     PTX    0.0000
    116 H          10.5492    5.3595    2.7276 H         1     PTX    0.0000
    117 H          -0.8178   -0.3911   -0.9056 H         1     PTX    0.0000
    118 H           1.8123   -0.0587   -1.8252 H         1     PTX    0.0000
    119 H           1.2896   -3.2332   -4.8646 H         1     PTX    0.0000
    120 H          -0.3789   -4.7702   -5.6126 H         1     PTX    0.0000
    121 H          -2.6809   -4.6103   -4.8049 H         1     PTX    0.0000
    122 H          -3.2877   -2.8289   -3.2450 H         1     PTX    0.0000
    123 H          -1.6684   -1.2500   -2.5119 H         1     PTX    0.0000
    124 H           1.9049   -2.9718   -1.1618 H         1     PTX    0.0000
    125 H           1.5584   -5.3196   -0.7290 H         1     PTX    0.0000
    126 H          -0.5698   -6.1056    0.1891 H         1     PTX    0.0000
    127 H          -2.3479   -4.4942    0.6705 H         1     PTX    0.0000
    128 H          -2.0056   -2.1353    0.2385 H         1     PTX    0.0000
    129 H          -0.9866    3.2603    2.5760 H         1     PTL    0.0000
    130 H           0.5167    4.9676    3.3319 H         1     PTL    0.0000
    131 H           2.8004    4.4068    4.0062 H         1     PTL    0.0000
    132 H           3.5439    2.0796    3.9121 H         1     PTL    0.0000
    133 H           2.0545    0.3542    3.1417 H         1     PTL    0.0000
@<TRIPOS>BOND
     1     1     2     1
     2     1    73     1
     3     1    74     1
     4     1    75     1
     5     2     3     1
     6     3     4     1
     7     3     5     1
     8     3    67     1
     9     4    76     1
    10     4    77     1
    11     4    78     1
    12     5     6     1
    13     6     7     1
    14     6    51     1
    15     6    79     1
    16     7     8     2
    17     7     9     1
    18     9    10     1
    19    10    11     1
    20    10    35     1
    21    10    80     1
    22    11    12     1
    23    11    81     1
    24    11    82     1
    25    12    13     1
    26    12    14     1
    27    12    37     1
    28    13    83     1
    29    14    15     1
    30    14    24     1
    31    14    84     1
    32    15    16     1
    33    16    17     2
    34    16    18     1
    35    18    19     1
    36    18    23     2
    37    19    20     2
    38    19    85     1
    39    20    21     1
    40    20    86     1
    41    21    22     2
    42    21    87     1
    43    22    23     1
    44    22    88     1
    45    23    89     1
    46    24    25     1
    47    24    46     1
    48    24    90     1
    49    25    26     1
    50    25    27     1
    51    25    40     1
    52    26    91     1
    53    26    92     1
    54    26    93     1
    55    27    28     2
    56    27    29     1
    57    29    30     1
    58    29    34     1
    59    29    94     1
    60    30    31     1
    61    31    32     1
    62    31    33     2
    63    32    95     1
    64    32    96     1
    65    32    97     1
    66    34    35     2
    67    34    37     1
    68    35    36     1
    69    36    98     1
    70    36    99     1
    71    36   100     1
    72    37    38     1
    73    37    39     1
    74    38   101     1
    75    38   102     1
    76    38   103     1
    77    39   104     1
    78    39   105     1
    79    39   106     1
    80    40    41     1
    81    40    42     1
    82    40   107     1
    83    41   108     1
    84    42    43     1
    85    42   109     1
    86    42   110     1
    87    43    44     1
    88    43    46     1
    89    43   111     1
    90    44    45     1
    91    45    46     1
    92    45   112     1
    93    45   113     1
    94    46    47     1
    95    47    48     1
    96    48    49     1
    97    48    50     2
    98    49   114     1
    99    49   115     1
   100    49   116     1
   101    51    52     1
   102    51    61     1
   103    51   117     1
   104    52    53     1
   105    52   118     1
   106    53    54     2
   107    53    55     1
   108    55    56     1
   109    55    60     2
   110    56    57     2
   111    56   119     1
   112    57    58     1
   113    57   120     1
   114    58    59     2
   115    58   121     1
   116    59    60     1
   117    59   122     1
   118    60   123     1
   119    61    62     1
   120    61    66     2
   121    62    63     2
   122    62   124     1
   123    63    64     1
   124    63   125     1
   125    64    65     2
   126    64   126     1
   127    65    66     1
   128    65   127     1
   129    66   128     1
   130    67    68     1
   131    67    72     2
   132    68    69     2
   133    68   129     1
   134    69    70     1
   135    69   130     1
   136    70    71     2
   137    70   131     1
   138    71    72     1
   139    71   132     1
   140    72   133     1
