# created with PyMOL 2.5.4
@<TRIPOS>MOLECULE
PTX
141 147 2               
SMALL
USER_CHARGES
@<TRIPOS>ATOM
1	   C	5.583	-6.601	2.658	C.3	1	PTL1	0.000	
2	   C	5.856	-6.034	1.259	C.3	1	PTL1	0.000	
3	   C	4.955	-4.829	0.945	C.3	1	PTL1	0.000	
4	   C	5.227	-4.254	-0.455	C.3	1	PTL1	0.000	
5	   C	4.327	-3.046	-0.761	C.3	1	PTL1	0.000	
6	   C	4.607	-2.456	-2.155	C.3	1	PTL1	0.000	
7	   C	3.767	-1.219	-2.494	C.3	1	PTL1	0.000	
8	   C	4.084	-0.732	-3.907	C.3	1	PTL1	0.000	
9	   C	1.777	-2.355	-3.201	C.3	1	PTL1	0.000	
10	   O	2.391	-1.454	-2.307	O.3	1	PTL1	0.000	
11	   H	6.243	-7.474	2.871	 H	1	PTL1	0.000	
12	   H	5.768	-5.836	3.446	 H	1	PTL1	0.000	
13	   H	4.527	-6.944	2.753	 H	1	PTL1	0.000	
14	   H	5.689	-6.833	0.498	 H	1	PTL1	0.000	
15	   H	6.927	-5.727	1.190	 H	1	PTL1	0.000	
16	   H	5.124	-4.034	1.711	 H	1	PTL1	0.000	
17	   H	3.885	-5.139	1.017	 H	1	PTL1	0.000	
18	   H	5.056	-5.047	-1.221	 H	1	PTL1	0.000	
19	   H	6.297	-3.946	-0.525	 H	1	PTL1	0.000	
20	   H	4.494	-2.270	0.023	 H	1	PTL1	0.000	
21	   H	3.260	-3.364	-0.690	 H	1	PTL1	0.000	
22	   H	4.467	-3.250	-2.924	 H	1	PTL1	0.000	
23	   H	5.686	-2.173	-2.209	 H	1	PTL1	0.000	
24	   H	3.399	0.079	-4.241	 H	1	PTL1	0.000	
25	   H	4.019	-1.552	-4.656	 H	1	PTL1	0.000	
26	   H	5.123	-0.336	-3.968	 H	1	PTL1	0.000	
27	   H	0.720	-2.479	-2.874	 H	1	PTL1	0.000	
28	   H	1.764	-1.944	-4.232	 H	1	PTL1	0.000	
29	   H	2.264	-3.352	-3.168	 H	1	PTL1	0.000	
30	   N	3.037	3.119	-0.536	N.pl3	2	PTX1	0.000	
31	   C	3.256	0.843	-1.359	C.3	2	PTX1	0.000	
32	   C	2.064	0.428	-0.482	C.2	2	PTX1	0.000	
33	   C	-0.386	0.812	-0.592	C.3	2	PTX1	0.000	
34	   C	-0.748	-0.581	-0.048	C.3	2	PTX1	0.000	
35	   C	-2.074	-0.530	0.739	C.3	2	PTX1	0.000	
36	   C	-3.237	-0.311	-0.266	C.3	2	PTX1	0.000	
37	   C	-2.892	-1.404	-2.427	C.2	2	PTX1	0.000	
38	   C	-2.518	-2.561	-3.055	C.2	2	PTX1	0.000	
39	   C	-2.087	-2.571	-4.332	C.2	2	PTX1	0.000	
40	   C	-1.715	-3.716	-4.925	C.2	2	PTX1	0.000	
41	   C	-1.769	-4.875	-4.253	C.2	2	PTX1	0.000	
42	   C	-2.200	-4.880	-2.983	C.2	2	PTX1	0.000	
43	   C	-2.569	-3.733	-2.392	C.2	2	PTX1	0.000	
44	   C	-4.641	0.008	0.306	C.3	2	PTX1	0.000	
45	   C	-5.068	1.522	0.262	C.3	2	PTX1	0.000	
46	   C	-4.629	2.294	-1.005	C.3	2	PTX1	0.000	
47	   C	-4.438	2.223	1.508	C.2	2	PTX1	0.000	
48	   C	-3.017	2.847	1.547	C.3	2	PTX1	0.000	
49	   C	-3.580	5.185	1.377	C.2	2	PTX1	0.000	
50	   C	-3.427	6.349	0.419	C.3	2	PTX1	0.000	
51	   C	-1.949	1.856	1.088	C.2	2	PTX1	0.000	
52	   C	-1.094	2.016	0.047	C.2	2	PTX1	0.000	
53	   C	-0.885	3.306	-0.723	C.3	2	PTX1	0.000	
54	   C	-1.859	0.535	1.850	C.3	2	PTX1	0.000	
55	   C	-0.435	0.557	2.497	C.3	2	PTX1	0.000	
56	   C	-2.708	0.326	3.134	C.3	2	PTX1	0.000	
57	   C	-6.614	1.682	0.357	C.3	2	PTX1	0.000	
58	   C	-7.331	0.553	1.090	C.3	2	PTX1	0.000	
59	   C	-7.125	-0.799	0.430	C.3	2	PTX1	0.000	
60	   C	-6.290	-1.110	-1.392	C.3	2	PTX1	0.000	
61	   C	-5.681	-1.091	0.013	C.3	2	PTX1	0.000	
62	   C	-5.851	-3.516	0.367	C.2	2	PTX1	0.000	
63	   C	-5.040	-4.582	1.081	C.3	2	PTX1	0.000	
64	   C	4.002	2.022	-0.696	C.3	2	PTX1	0.000	
65	   C	3.158	4.275	0.191	C.2	2	PTX1	0.000	
66	   C	4.295	4.715	0.808	C.2	2	PTX1	0.000	
67	   C	4.195	5.496	1.905	C.2	2	PTX1	0.000	
68	   C	5.281	5.943	2.555	C.2	2	PTX1	0.000	
69	   C	6.507	5.629	2.115	C.2	2	PTX1	0.000	
70	   C	6.630	4.876	1.014	C.2	2	PTX1	0.000	
71	   C	5.537	4.433	0.371	C.2	2	PTX1	0.000	
72	   C	4.603	1.588	0.630	C.2	2	PTX1	0.000	
73	   C	3.912	1.652	1.784	C.2	2	PTX1	0.000	
74	   C	4.460	1.259	2.944	C.2	2	PTX1	0.000	
75	   C	5.716	0.789	2.969	C.2	2	PTX1	0.000	
76	   C	6.416	0.713	1.828	C.2	2	PTX1	0.000	
77	   C	5.860	1.109	0.673	C.2	2	PTX1	0.000	
78	   O	4.160	-0.221	-1.569	O.3	2	PTX1	0.000	
79	   O	2.157	-0.344	0.444	O.co2	2	PTX1	0.000	
80	   O	0.957	1.071	-0.934	O.3	2	PTX1	0.000	
81	   O	-2.290	-1.786	1.327	O.3	2	PTX1	0.000	
82	   O	-3.285	-1.436	-1.107	O.3	2	PTX1	0.000	
83	   O	-2.817	-0.338	-3.007	O.co2	2	PTX1	0.000	
84	   O	-5.076	2.252	2.541	O.2	2	PTX1	0.000	
85	   O	-2.998	4.076	0.843	O.3	2	PTX1	0.000	
86	   O	-4.139	5.239	2.448	O.co2	2	PTX1	0.000	
87	   O	-7.198	1.803	-0.923	O.3	2	PTX1	0.000	
88	   O	-7.590	-0.835	-0.900	O.3	2	PTX1	0.000	
89	   O	-5.235	-2.312	0.524	O.3	2	PTX1	0.000	
90	   O	-6.876	-3.739	-0.233	O.co2	2	PTX1	0.000	
91	   O	2.098	4.826	0.383	O.2	2	PTX1	0.000	
92	   H	2.893	1.196	-2.352	 H	2	PTX1	0.000	
93	   H	-0.887	0.818	-1.599	 H	2	PTX1	0.000	
94	   H	-0.765	-1.325	-0.875	 H	2	PTX1	0.000	
95	   H	-0.009	-1.034	0.635	 H	2	PTX1	0.000	
96	   H	-2.336	-2.449	0.631	 H	2	PTX1	0.000	
97	   H	-2.958	0.555	-0.881	 H	2	PTX1	0.000	
98	   H	-2.017	-1.651	-4.936	 H	2	PTX1	0.000	
99	   H	-1.361	-3.707	-5.970	 H	2	PTX1	0.000	
100	   H	-1.463	-5.815	-4.740	 H	2	PTX1	0.000	
101	   H	-2.247	-5.830	-2.425	 H	2	PTX1	0.000	
102	   H	-2.913	-3.799	-1.346	 H	2	PTX1	0.000	
103	   H	-4.568	-0.207	1.393	 H	2	PTX1	0.000	
104	   H	-4.901	1.759	-1.941	 H	2	PTX1	0.000	
105	   H	-5.089	3.308	-1.040	 H	2	PTX1	0.000	
106	   H	-3.543	2.473	-1.084	 H	2	PTX1	0.000	
107	   H	-2.743	3.078	2.604	 H	2	PTX1	0.000	
108	   H	-3.911	6.114	-0.556	 H	2	PTX1	0.000	
109	   H	-3.905	7.266	0.831	 H	2	PTX1	0.000	
110	   H	-2.349	6.569	0.245	 H	2	PTX1	0.000	
111	   H	-1.715	3.516	-1.431	 H	2	PTX1	0.000	
112	   H	-0.728	4.169	-0.041	 H	2	PTX1	0.000	
113	   H	0.039	3.286	-1.340	 H	2	PTX1	0.000	
114	   H	-0.159	-0.432	2.929	 H	2	PTX1	0.000	
115	   H	0.389	0.868	1.825	 H	2	PTX1	0.000	
116	   H	-0.368	1.305	3.320	 H	2	PTX1	0.000	
117	   H	-2.425	-0.622	3.645	 H	2	PTX1	0.000	
118	   H	-2.558	1.138	3.880	 H	2	PTX1	0.000	
119	   H	-3.799	0.245	3.022	 H	2	PTX1	0.000	
120	   H	-6.866	2.651	0.854	 H	2	PTX1	0.000	
121	   H	-8.029	1.325	-0.962	 H	2	PTX1	0.000	
122	   H	-6.970	0.484	2.142	 H	2	PTX1	0.000	
123	   H	-8.425	0.769	1.146	 H	2	PTX1	0.000	
124	   H	-7.619	-1.608	1.012	 H	2	PTX1	0.000	
125	   H	-6.260	-2.072	-1.941	 H	2	PTX1	0.000	
126	   H	-5.945	-0.280	-2.043	 H	2	PTX1	0.000	
127	   H	-3.990	-4.593	0.708	 H	2	PTX1	0.000	
128	   H	-5.031	-4.388	2.177	 H	2	PTX1	0.000	
129	   H	-5.475	-5.592	0.910	 H	2	PTX1	0.000	
130	   H	4.780	2.328	-1.434	 H	2	PTX1	0.000	
131	   H	2.092	2.968	-0.894	 H	2	PTX1	0.000	
132	   H	3.218	5.781	2.331	 H	2	PTX1	0.000	
133	   H	5.169	6.569	3.457	 H	2	PTX1	0.000	
134	   H	7.402	5.997	2.643	 H	2	PTX1	0.000	
135	   H	7.635	4.634	0.627	 H	2	PTX1	0.000	
136	   H	5.721	3.868	-0.550	 H	2	PTX1	0.000	
137	   H	2.875	2.026	1.798	 H	2	PTX1	0.000	
138	   H	3.876	1.320	3.878	 H	2	PTX1	0.000	
139	   H	6.168	0.464	3.921	 H	2	PTX1	0.000	
140	   H	7.448	0.324	1.839	 H	2	PTX1	0.000	
141	   H	6.451	1.035	-0.255	 H	2	PTX1	0.000	
@<TRIPOS>BOND
1 1 2 1
2 1 11 1
3 1 12 1
4 1 13 1
5 2 3 1
6 2 14 1
7 2 15 1
8 3 4 1
9 3 16 1
10 3 17 1
11 4 5 1
12 4 18 1
13 4 19 1
14 5 6 1
15 5 20 1
16 5 21 1
17 6 7 1
18 6 22 1
19 6 23 1
20 7 8 1
21 7 10 1
22 7 78 1
23 8 24 1
24 8 25 1
25 8 26 1
26 9 27 1
27 9 28 1
28 9 29 1
29 9 10 1
30 30 65 1
31 30 131 1
32 31 32 1
33 31 64 1
34 31 92 1
35 32 79 2
36 32 80 1
37 33 34 1
38 33 52 1
39 33 93 1
40 34 35 1
41 34 94 1
42 34 95 1
43 35 36 1
44 35 54 1
45 35 81 1
46 36 44 1
47 36 82 1
48 36 97 1
49 37 38 1
50 37 83 2
51 38 39 1
52 38 43 2
53 39 40 2
54 39 98 1
55 40 41 1
56 40 99 1
57 41 42 2
58 41 100 1
59 42 43 1
60 42 101 1
61 43 102 1
62 44 45 1
63 44 61 1
64 44 103 1
65 45 46 1
66 45 47 1
67 45 57 1
68 46 104 1
69 46 105 1
70 46 106 1
71 47 48 1
72 47 84 2
73 48 51 1
74 48 85 1
75 48 107 1
76 49 50 1
77 49 86 2
78 50 108 1
79 50 109 1
80 50 110 1
81 51 52 2
82 51 54 1
83 52 53 1
84 53 111 1
85 53 112 1
86 53 113 1
87 54 55 1
88 54 56 1
89 55 114 1
90 55 115 1
91 55 116 1
92 56 117 1
93 56 118 1
94 56 119 1
95 57 58 1
96 57 87 1
97 57 120 1
98 58 59 1
99 58 122 1
100 58 123 1
101 59 61 1
102 59 88 1
103 59 124 1
104 60 61 1
105 60 125 1
106 60 126 1
107 61 89 1
108 62 63 1
109 62 90 2
110 63 127 1
111 63 128 1
112 63 129 1
113 30 64 1
114 64 72 1
115 64 130 1
116 65 66 1
117 65 91 2
118 66 67 1
119 66 71 2
120 67 68 2
121 67 132 1
122 68 69 1
123 68 133 1
124 69 70 2
125 69 134 1
126 70 71 1
127 70 135 1
128 71 136 1
129 72 73 1
130 72 77 2
131 73 74 2
132 73 137 1
133 74 75 1
134 74 138 1
135 75 76 2
136 75 139 1
137 76 77 1
138 76 140 1
139 77 141 1
140 31 78 1
141 33 80 1
142 81 96 1
143 37 82 1
144 49 85 1
145 87 121 1
146 60 88 1
147 62 89 1
@<TRIPOS>SUBSTRUCTURE
1	PTL1	1	GROUP	1 ****	PTL
2	PTX1	30	GROUP	1 ****	PTX
