@<TRIPOS>MOLECULE
IDB
88 88 1 0 0
SMALL
USER_CHARGES


@<TRIPOS>ATOM
      1 C          23.4752    2.5280    2.0218 C.3       1     IDL    0.0000
      2 C          22.1937    2.8249    1.2315 C.3       1     IDL    0.0000
      3 C          21.0174    3.1697    2.1587 C.3       1     IDL    0.0000
      4 C          19.7310    3.4677    1.3712 C.3       1     IDL    0.0000
      5 C          18.5553    3.8107    2.3005 C.3       1     IDL    0.0000
      6 C          17.2673    4.1080    1.5153 C.3       1     IDL    0.0000
      7 C          16.0926    4.4459    2.4478 C.3       1     IDL    0.0000
      8 C          14.8085    4.7379    1.6691 C.3       1     IDL    0.0000
      9 O          13.7885    5.0402    2.5902 O.3       1     IDL    0.0000
     10 C          12.4854    5.1581    2.0516 C.3       1     IDL    0.0000
     11 C          11.6151    5.6296    3.2162 C.3       1     IDL    0.0000
     12 C          12.4251    6.1631    0.9059 C.3       1     IDL    0.0000
     13 O          12.1521    3.8586    1.6137 O.3       1     IDB    0.0000
     14 C          10.7815    3.5871    1.4645 C.3       1     IDB    0.0000
     15 C          10.6274    2.2464    0.7441 C.3       1     IDB    0.0000
     16 C           9.1512    1.8458    0.5895 C.3       1     IDB    0.0000
     17 C           8.9919    0.5156   -0.1646 C.3       1     IDB    0.0000
     18 C           7.5185    0.0914   -0.2774 C.3       1     IDB    0.0000
     19 C           7.3561   -1.2215   -1.0607 C.3       1     IDB    0.0000
     20 C           5.8873   -1.6698   -1.1333 C.3       1     IDB    0.0000
     21 C           5.7209   -2.9654   -1.9440 C.3       1     IDB    0.0000
     22 C           4.2584   -3.4375   -1.9795 C.3       1     IDB    0.0000
     23 C           4.0857   -4.7144   -2.8175 C.3       1     IDB    0.0000
     24 C           2.6312   -5.1737   -2.8308 C.2       1     IDB    0.0000
     25 C           1.7815   -4.7917   -3.8030 C.2       1     IDB    0.0000
     26 C           2.1794   -3.8489   -4.9282 C.3       1     IDB    0.0000
     27 C           0.4972   -5.2405   -3.8073 C.2       1     IDB    0.0000
     28 O          -0.2582   -4.9017   -4.7011 O.2       1     IDB    0.0000
     29 C           0.0720   -6.0609   -2.8001 C.2       1     IDB    0.0000
     30 O          -1.2440   -6.4601   -2.9531 O.3       1     IDB    0.0000
     31 C          -1.7486   -7.6139   -2.3240 C.3       1     IDB    0.0000
     32 C           0.9163   -6.4396   -1.8101 C.2       1     IDB    0.0000
     33 O           0.4124   -7.2148   -0.7864 O.3       1     IDB    0.0000
     34 C           0.9115   -7.1611    0.5291 C.3       1     IDB    0.0000
     35 C           2.2072   -5.9872   -1.8225 C.2       1     IDB    0.0000
     36 O           2.9967   -6.3029   -0.9549 O.2       1     IDB    0.0000
     37 H          24.3185    2.2793    1.3370 H         1     IDL    0.0000
     38 H          23.7831    3.4070    2.6329 H         1     IDL    0.0000
     39 H          23.3318    1.6639    2.7101 H         1     IDL    0.0000
     40 H          21.9316    1.9355    0.6098 H         1     IDL    0.0000
     41 H          22.3816    3.6756    0.5336 H         1     IDL    0.0000
     42 H          21.2853    4.0575    2.7796 H         1     IDL    0.0000
     43 H          20.8355    2.3174    2.8558 H         1     IDL    0.0000
     44 H          19.4641    2.5800    0.7498 H         1     IDL    0.0000
     45 H          19.9129    4.3205    0.6747 H         1     IDL    0.0000
     46 H          18.8223    4.6984    2.9219 H         1     IDL    0.0000
     47 H          18.3745    2.9577    2.9970 H         1     IDL    0.0000
     48 H          17.0011    3.2213    0.8923 H         1     IDL    0.0000
     49 H          17.4461    4.9628    0.8206 H         1     IDL    0.0000
     50 H          16.3570    5.3332    3.0716 H         1     IDL    0.0000
     51 H          15.9155    3.5908    3.1434 H         1     IDL    0.0000
     52 H          14.5315    3.8464    1.0632 H         1     IDL    0.0000
     53 H          14.9815    5.6104    0.9997 H         1     IDL    0.0000
     54 H          10.5637    5.8359    2.9163 H         1     IDL    0.0000
     55 H          12.0080    6.5841    3.6357 H         1     IDL    0.0000
     56 H          11.6057    4.8873    4.0468 H         1     IDL    0.0000
     57 H          12.9192    7.1208    1.1874 H         1     IDL    0.0000
     58 H          12.9045    5.7806   -0.0229 H         1     IDL    0.0000
     59 H          11.3756    6.4141    0.6346 H         1     IDL    0.0000
     60 H          10.3038    3.5152    2.4678 H         1     IDB    0.0000
     61 H          10.2953    4.3883    0.8645 H         1     IDB    0.0000
     62 H          11.1025    2.3131   -0.2639 H         1     IDB    0.0000
     63 H          11.1680    1.4539    1.3151 H         1     IDB    0.0000
     64 H           8.6865    1.7566    1.6002 H         1     IDB    0.0000
     65 H           8.6044    2.6490    0.0406 H         1     IDB    0.0000
     66 H           9.4284    0.6170   -1.1867 H         1     IDB    0.0000
     67 H           9.5649   -0.2818    0.3656 H         1     IDB    0.0000
     68 H           7.0923   -0.0331    0.7465 H         1     IDB    0.0000
     69 H           6.9377    0.8979   -0.7850 H         1     IDB    0.0000
     70 H           7.7544   -1.0859   -2.0943 H         1     IDB    0.0000
     71 H           7.9611   -2.0218   -0.5719 H         1     IDB    0.0000
     72 H           5.4993   -1.8279   -0.0989 H         1     IDB    0.0000
     73 H           5.2750   -0.8618   -1.5997 H         1     IDB    0.0000
     74 H           6.0811   -2.7961   -2.9866 H         1     IDB    0.0000
     75 H           6.3552   -3.7672   -1.4965 H         1     IDB    0.0000
     76 H           3.9080   -3.6243   -0.9367 H         1     IDB    0.0000
     77 H           3.6179   -2.6274   -2.4019 H         1     IDB    0.0000
     78 H           4.4757   -4.5594   -3.8464 H         1     IDB    0.0000
     79 H           4.7623   -5.5160   -2.4436 H         1     IDB    0.0000
     80 H           3.1358   -3.3084   -4.7821 H         1     IDB    0.0000
     81 H           2.2508   -4.4050   -5.8909 H         1     IDB    0.0000
     82 H           1.4367   -3.0270   -5.0438 H         1     IDB    0.0000
     83 H          -2.7151   -7.8662   -2.8158 H         1     IDB    0.0000
     84 H          -1.0577   -8.4739   -2.4685 H         1     IDB    0.0000
     85 H          -1.9782   -7.4154   -1.2547 H         1     IDB    0.0000
     86 H           0.1244   -7.5741    1.1997 H         1     IDB    0.0000
     87 H           1.7987   -7.8212    0.6450 H         1     IDB    0.0000
     88 H           1.1026   -6.1090    0.8364 H         1     IDB    0.0000
@<TRIPOS>BOND
     1     1     2     1
     2     1    37     1
     3     1    38     1
     4     1    39     1
     5     2     3     1
     6     2    40     1
     7     2    41     1
     8     3     4     1
     9     3    42     1
    10     3    43     1
    11     4     5     1
    12     4    44     1
    13     4    45     1
    14     5     6     1
    15     5    46     1
    16     5    47     1
    17     6     7     1
    18     6    48     1
    19     6    49     1
    20     7     8     1
    21     7    50     1
    22     7    51     1
    23     8     9     1
    24     8    52     1
    25     8    53     1
    26     9    10     1
    27    10    11     1
    28    10    12     1
    29    10    13     1
    30    11    54     1
    31    11    55     1
    32    11    56     1
    33    12    57     1
    34    12    58     1
    35    12    59     1
    36    13    14     1
    37    14    15     1
    38    14    60     1
    39    14    61     1
    40    15    16     1
    41    15    62     1
    42    15    63     1
    43    16    17     1
    44    16    64     1
    45    16    65     1
    46    17    18     1
    47    17    66     1
    48    17    67     1
    49    18    19     1
    50    18    68     1
    51    18    69     1
    52    19    20     1
    53    19    70     1
    54    19    71     1
    55    20    21     1
    56    20    72     1
    57    20    73     1
    58    21    22     1
    59    21    74     1
    60    21    75     1
    61    22    23     1
    62    22    76     1
    63    22    77     1
    64    23    24     1
    65    23    78     1
    66    23    79     1
    67    24    25     2
    68    24    35     1
    69    25    26     1
    70    25    27     1
    71    26    80     1
    72    26    81     1
    73    26    82     1
    74    27    28     2
    75    27    29     1
    76    29    30     1
    77    29    32     2
    78    30    31     1
    79    31    83     1
    80    31    84     1
    81    31    85     1
    82    32    33     1
    83    32    35     1
    84    33    34     1
    85    34    86     1
    86    34    87     1
    87    34    88     1
    88    35    36     2
