# created with PyMOL 2.5.4
@<TRIPOS>MOLECULE
IDB
88 88 2                 
SMALL
USER_CHARGES
@<TRIPOS>ATOM
1	   C	10.781	3.587	1.464	C.3	1	IDB1	0.000	
2	   C	10.627	2.246	0.744	C.3	1	IDB1	0.000	
3	   C	9.151	1.846	0.590	C.3	1	IDB1	0.000	
4	   C	8.992	0.516	-0.165	C.3	1	IDB1	0.000	
5	   C	7.518	0.091	-0.277	C.3	1	IDB1	0.000	
6	   C	7.356	-1.222	-1.061	C.3	1	IDB1	0.000	
7	   C	5.887	-1.670	-1.133	C.3	1	IDB1	0.000	
8	   C	5.721	-2.965	-1.944	C.3	1	IDB1	0.000	
9	   C	4.258	-3.438	-1.980	C.3	1	IDB1	0.000	
10	   C	4.086	-4.714	-2.818	C.3	1	IDB1	0.000	
11	   C	2.631	-5.174	-2.831	C.2	1	IDB1	0.000	
12	   C	1.781	-4.792	-3.803	C.2	1	IDB1	0.000	
13	   C	2.179	-3.849	-4.928	C.3	1	IDB1	0.000	
14	   C	0.497	-5.240	-3.807	C.2	1	IDB1	0.000	
15	   C	0.072	-6.061	-2.800	C.2	1	IDB1	0.000	
16	   C	-1.749	-7.614	-2.324	C.3	1	IDB1	0.000	
17	   C	0.916	-6.440	-1.810	C.2	1	IDB1	0.000	
18	   C	0.911	-7.161	0.529	C.3	1	IDB1	0.000	
19	   C	2.207	-5.987	-1.822	C.2	1	IDB1	0.000	
20	   O	12.152	3.859	1.614	O.3	1	IDB1	0.000	
21	   O	-0.258	-4.902	-4.701	O.2	1	IDB1	0.000	
22	   O	-1.244	-6.460	-2.953	O.3	1	IDB1	0.000	
23	   O	0.412	-7.215	-0.786	O.3	1	IDB1	0.000	
24	   O	2.997	-6.303	-0.955	O.2	1	IDB1	0.000	
25	   H	10.304	3.515	2.468	 H	1	IDB1	0.000	
26	   H	10.295	4.388	0.864	 H	1	IDB1	0.000	
27	   H	11.102	2.313	-0.264	 H	1	IDB1	0.000	
28	   H	11.168	1.454	1.315	 H	1	IDB1	0.000	
29	   H	8.686	1.757	1.600	 H	1	IDB1	0.000	
30	   H	8.604	2.649	0.041	 H	1	IDB1	0.000	
31	   H	9.428	0.617	-1.187	 H	1	IDB1	0.000	
32	   H	9.565	-0.282	0.366	 H	1	IDB1	0.000	
33	   H	7.092	-0.033	0.747	 H	1	IDB1	0.000	
34	   H	6.938	0.898	-0.785	 H	1	IDB1	0.000	
35	   H	7.754	-1.086	-2.094	 H	1	IDB1	0.000	
36	   H	7.961	-2.022	-0.572	 H	1	IDB1	0.000	
37	   H	5.499	-1.828	-0.099	 H	1	IDB1	0.000	
38	   H	5.275	-0.862	-1.600	 H	1	IDB1	0.000	
39	   H	6.081	-2.796	-2.987	 H	1	IDB1	0.000	
40	   H	6.355	-3.767	-1.497	 H	1	IDB1	0.000	
41	   H	3.908	-3.624	-0.937	 H	1	IDB1	0.000	
42	   H	3.618	-2.627	-2.402	 H	1	IDB1	0.000	
43	   H	4.476	-4.559	-3.846	 H	1	IDB1	0.000	
44	   H	4.762	-5.516	-2.444	 H	1	IDB1	0.000	
45	   H	3.136	-3.308	-4.782	 H	1	IDB1	0.000	
46	   H	2.251	-4.405	-5.891	 H	1	IDB1	0.000	
47	   H	1.437	-3.027	-5.044	 H	1	IDB1	0.000	
48	   H	-2.715	-7.866	-2.816	 H	1	IDB1	0.000	
49	   H	-1.058	-8.474	-2.468	 H	1	IDB1	0.000	
50	   H	-1.978	-7.415	-1.255	 H	1	IDB1	0.000	
51	   H	0.124	-7.574	1.200	 H	1	IDB1	0.000	
52	   H	1.799	-7.821	0.645	 H	1	IDB1	0.000	
53	   H	1.103	-6.109	0.836	 H	1	IDB1	0.000	
54	   C	23.475	2.528	2.022	C.3	2	IDL1	0.000	
55	   C	22.194	2.825	1.232	C.3	2	IDL1	0.000	
56	   C	21.017	3.170	2.159	C.3	2	IDL1	0.000	
57	   C	19.731	3.468	1.371	C.3	2	IDL1	0.000	
58	   C	18.555	3.811	2.300	C.3	2	IDL1	0.000	
59	   C	17.267	4.108	1.515	C.3	2	IDL1	0.000	
60	   C	16.093	4.446	2.448	C.3	2	IDL1	0.000	
61	   C	14.809	4.738	1.669	C.3	2	IDL1	0.000	
62	   C	12.485	5.158	2.052	C.3	2	IDL1	0.000	
63	   C	11.615	5.630	3.216	C.3	2	IDL1	0.000	
64	   C	12.425	6.163	0.906	C.3	2	IDL1	0.000	
65	   O	13.788	5.040	2.590	O.3	2	IDL1	0.000	
66	   H	24.319	2.279	1.337	 H	2	IDL1	0.000	
67	   H	23.783	3.407	2.633	 H	2	IDL1	0.000	
68	   H	23.332	1.664	2.710	 H	2	IDL1	0.000	
69	   H	21.932	1.936	0.610	 H	2	IDL1	0.000	
70	   H	22.382	3.676	0.534	 H	2	IDL1	0.000	
71	   H	21.285	4.057	2.780	 H	2	IDL1	0.000	
72	   H	20.836	2.317	2.856	 H	2	IDL1	0.000	
73	   H	19.464	2.580	0.750	 H	2	IDL1	0.000	
74	   H	19.913	4.320	0.675	 H	2	IDL1	0.000	
75	   H	18.822	4.698	2.922	 H	2	IDL1	0.000	
76	   H	18.375	2.958	2.997	 H	2	IDL1	0.000	
77	   H	17.001	3.221	0.892	 H	2	IDL1	0.000	
78	   H	17.446	4.963	0.821	 H	2	IDL1	0.000	
79	   H	16.357	5.333	3.072	 H	2	IDL1	0.000	
80	   H	15.915	3.591	3.143	 H	2	IDL1	0.000	
81	   H	14.531	3.846	1.063	 H	2	IDL1	0.000	
82	   H	14.981	5.610	1.000	 H	2	IDL1	0.000	
83	   H	10.564	5.836	2.916	 H	2	IDL1	0.000	
84	   H	12.008	6.584	3.636	 H	2	IDL1	0.000	
85	   H	11.606	4.887	4.047	 H	2	IDL1	0.000	
86	   H	12.919	7.121	1.187	 H	2	IDL1	0.000	
87	   H	12.905	5.781	-0.023	 H	2	IDL1	0.000	
88	   H	11.376	6.414	0.635	 H	2	IDL1	0.000	
@<TRIPOS>BOND
1 1 2 1
2 1 25 1
3 1 26 1
4 2 3 1
5 2 27 1
6 2 28 1
7 3 4 1
8 3 29 1
9 3 30 1
10 4 5 1
11 4 31 1
12 4 32 1
13 5 6 1
14 5 33 1
15 5 34 1
16 6 7 1
17 6 35 1
18 6 36 1
19 7 8 1
20 7 37 1
21 7 38 1
22 8 9 1
23 8 39 1
24 8 40 1
25 9 10 1
26 9 41 1
27 9 42 1
28 10 11 1
29 10 43 1
30 10 44 1
31 11 12 2
32 11 19 1
33 12 13 1
34 12 14 1
35 13 45 1
36 13 46 1
37 13 47 1
38 14 15 1
39 14 21 2
40 15 17 2
41 15 22 1
42 16 48 1
43 16 49 1
44 16 50 1
45 17 19 1
46 17 23 1
47 18 51 1
48 18 52 1
49 18 53 1
50 19 24 2
51 1 20 1
52 16 22 1
53 18 23 1
54 54 55 1
55 54 66 1
56 54 67 1
57 54 68 1
58 55 56 1
59 55 69 1
60 55 70 1
61 56 57 1
62 56 71 1
63 56 72 1
64 57 58 1
65 57 73 1
66 57 74 1
67 58 59 1
68 58 75 1
69 58 76 1
70 59 60 1
71 59 77 1
72 59 78 1
73 60 61 1
74 60 79 1
75 60 80 1
76 61 65 1
77 61 81 1
78 61 82 1
79 20 62 1
80 62 63 1
81 62 64 1
82 63 83 1
83 63 84 1
84 63 85 1
85 64 86 1
86 64 87 1
87 64 88 1
88 62 65 1
@<TRIPOS>SUBSTRUCTURE
1	IDB1	1	GROUP	1 ****	IDB
2	IDL1	54	GROUP	1 ****	IDL
