@<TRIPOS>MOLECULE
IDB 
88 88 0 0 0
SMALL
USER_CHARGES
#CGenFF output mol2 file
@<TRIPOS>ATOM
1	C1    10.7810     3.5870     1.4640	C.3	1	IDL1     0.0360
2	C2    10.6270     2.2460     0.7440	C.3	1	IDL1    -0.1800
3	C3     9.1510     1.8460     0.5900	C.3	1	IDL1    -0.1800
4	C4     8.9920     0.5160    -0.1650	C.3	1	IDL1    -0.1800
5	C5     7.5180     0.0910    -0.2770	C.3	1	IDL1    -0.1800
6	C6     7.3560    -1.2220    -1.0610	C.3	1	IDL1    -0.1800
7	C7     5.8870    -1.6700    -1.1330	C.3	1	IDL1    -0.1800
8	C8     5.7210    -2.9650    -1.9440	C.3	1	IDL1    -0.1220
9	C9     4.2580    -3.4380    -1.9800	C.3	1	IDL1    -0.1670
10	C10     4.0860    -4.7140    -2.8180	C.3	1	IDL1    -0.2740
11	C11     2.6310    -5.1740    -2.8310	C.2	1	IDL1    -0.0450
12	C12     1.7810    -4.7920    -3.8030	C.2	1	IDL1     0.0720
13	C13     2.1790    -3.8490    -4.9280	C.3	1	IDL1    -0.2410
14	C14     0.4970    -5.2400    -3.8070	C.2	1	IDL1     0.3430
15	C15     0.0720    -6.0610    -2.8000	C.2	1	IDL1    -0.0370
16	C16    -1.7490    -7.6140    -2.3240	C.3	1	IDL1     0.0120
17	C17     0.9160    -6.4400    -1.8100	C.2	1	IDL1    -0.0370
18	C18     0.9110    -7.1610     0.5290	C.3	1	IDL1     0.0120
19	C19     2.2070    -5.9870    -1.8220	C.2	1	IDL1     0.3740
20	O1    12.1520     3.8590     1.6140	O.3	1	IDL1    -0.4020
21	O2    -0.2580    -4.9020    -4.7010	O.2	1	IDL1    -0.2470
22	O3    -1.2440    -6.4600    -2.9530	O.3	1	IDL1    -0.3730
23	O4     0.4120    -7.2150    -0.7860	O.3	1	IDL1    -0.3730
24	O5     2.9970    -6.3030    -0.9550	O.2	1	IDL1    -0.2470
25	H1    10.3040     3.5150     2.4680	H	1	IDL1     0.0900
26	H2    10.2950     4.3880     0.8640	H	1	IDL1     0.0900
27	H3    11.1020     2.3130    -0.2640	H	1	IDL1     0.0900
28	H4    11.1680     1.4540     1.3150	H	1	IDL1     0.0900
29	H5     8.6860     1.7570     1.6000	H	1	IDL1     0.0900
30	H6     8.6040     2.6490     0.0410	H	1	IDL1     0.0900
31	H7     9.4280     0.6170    -1.1870	H	1	IDL1     0.0900
32	H8     9.5650    -0.2820     0.3660	H	1	IDL1     0.0900
33	H9     7.0920    -0.0330     0.7470	H	1	IDL1     0.0900
34	H10     6.9380     0.8980    -0.7850	H	1	IDL1     0.0900
35	H11     7.7540    -1.0860    -2.0940	H	1	IDL1     0.0900
36	H12     7.9610    -2.0220    -0.5720	H	1	IDL1     0.0900
37	H13     5.4990    -1.8280    -0.0990	H	1	IDL1     0.0900
38	H14     5.2750    -0.8620    -1.6000	H	1	IDL1     0.0900
39	H15     6.0810    -2.7960    -2.9870	H	1	IDL1     0.0900
40	H16     6.3550    -3.7670    -1.4970	H	1	IDL1     0.0900
41	H17     3.9080    -3.6240    -0.9370	H	1	IDL1     0.0900
42	H18     3.6180    -2.6270    -2.4020	H	1	IDL1     0.0900
43	H19     4.4760    -4.5590    -3.8460	H	1	IDL1     0.0900
44	H20     4.7620    -5.5160    -2.4440	H	1	IDL1     0.0900
45	H21     3.1360    -3.3080    -4.7820	H	1	IDL1     0.0900
46	H22     2.2510    -4.4050    -5.8910	H	1	IDL1     0.0900
47	H23     1.4370    -3.0270    -5.0440	H	1	IDL1     0.0900
48	H24    -2.7150    -7.8660    -2.8160	H	1	IDL1     0.0900
49	H25    -1.0580    -8.4740    -2.4680	H	1	IDL1     0.0900
50	H26    -1.9780    -7.4150    -1.2550	H	1	IDL1     0.0900
51	H27     0.1240    -7.5740     1.2000	H	1	IDL1     0.0900
52	H28     1.7990    -7.8210     0.6450	H	1	IDL1     0.0900
53	H29     1.1030    -6.1090     0.8360	H	1	IDL1     0.0900
54	C20    23.4750     2.5280     2.0220	C.3	1	IDL1    -0.2730
55	C21    22.1940     2.8250     1.2320	C.3	1	IDL1    -0.1770
56	C22    21.0170     3.1700     2.1590	C.3	1	IDL1    -0.1810
57	C23    19.7310     3.4680     1.3710	C.3	1	IDL1    -0.1790
58	C24    18.5550     3.8110     2.3000	C.3	1	IDL1    -0.1800
59	C25    17.2670     4.1080     1.5150	C.3	1	IDL1    -0.1800
60	C26    16.0930     4.4460     2.4480	C.3	1	IDL1    -0.1800
61	C27    14.8090     4.7380     1.6690	C.3	1	IDL1     0.0360
62	C28    12.4850     5.1580     2.0520	C.3	1	IDL1     0.3700
63	C29    11.6150     5.6300     3.2160	C.3	1	IDL1    -0.2690
64	C30    12.4250     6.1630     0.9060	C.3	1	IDL1    -0.2690
65	O6    13.7880     5.0400     2.5900	O.3	1	IDL1    -0.4020
66	H30    24.3190     2.2790     1.3370	H	1	IDL1     0.0900
67	H31    23.7830     3.4070     2.6330	H	1	IDL1     0.0900
68	H32    23.3320     1.6640     2.7100	H	1	IDL1     0.0900
69	H33    21.9320     1.9360     0.6100	H	1	IDL1     0.0900
70	H34    22.3820     3.6760     0.5340	H	1	IDL1     0.0900
71	H35    21.2850     4.0570     2.7800	H	1	IDL1     0.0900
72	H36    20.8360     2.3170     2.8560	H	1	IDL1     0.0900
73	H37    19.4640     2.5800     0.7500	H	1	IDL1     0.0900
74	H38    19.9130     4.3200     0.6750	H	1	IDL1     0.0900
75	H39    18.8220     4.6980     2.9220	H	1	IDL1     0.0900
76	H40    18.3750     2.9580     2.9970	H	1	IDL1     0.0900
77	H41    17.0010     3.2210     0.8920	H	1	IDL1     0.0900
78	H42    17.4460     4.9630     0.8210	H	1	IDL1     0.0900
79	H43    16.3570     5.3330     3.0720	H	1	IDL1     0.0900
80	H44    15.9150     3.5910     3.1430	H	1	IDL1     0.0900
81	H45    14.5310     3.8460     1.0630	H	1	IDL1     0.0900
82	H46    14.9810     5.6100     1.0000	H	1	IDL1     0.0900
83	H47    10.5640     5.8360     2.9160	H	1	IDL1     0.0900
84	H48    12.0080     6.5840     3.6360	H	1	IDL1     0.0900
85	H49    11.6060     4.8870     4.0470	H	1	IDL1     0.0900
86	H50    12.9190     7.1210     1.1870	H	1	IDL1     0.0900
87	H51    12.9050     5.7810    -0.0230	H	1	IDL1     0.0900
88	H52    11.3760     6.4140     0.6350	H	1	IDL1     0.0900
@<TRIPOS>BOND
1	1	2	1
2	1	25	1
3	1	26	1
4	2	3	1
5	2	27	1
6	2	28	1
7	3	4	1
8	3	29	1
9	3	30	1
10	4	5	1
11	4	31	1
12	4	32	1
13	5	6	1
14	5	33	1
15	5	34	1
16	6	7	1
17	6	35	1
18	6	36	1
19	7	8	1
20	7	37	1
21	7	38	1
22	8	9	1
23	8	39	1
24	8	40	1
25	9	10	1
26	9	41	1
27	9	42	1
28	10	11	1
29	10	43	1
30	10	44	1
31	11	12	2
32	11	19	1
33	12	13	1
34	12	14	1
35	13	45	1
36	13	46	1
37	13	47	1
38	14	15	1
39	14	21	2
40	15	17	2
41	15	22	1
42	16	48	1
43	16	49	1
44	16	50	1
45	17	19	1
46	17	23	1
47	18	51	1
48	18	52	1
49	18	53	1
50	19	24	2
51	1	20	1
52	16	22	1
53	18	23	1
54	54	55	1
55	54	66	1
56	54	67	1
57	54	68	1
58	55	56	1
59	55	69	1
60	55	70	1
61	56	57	1
62	56	71	1
63	56	72	1
64	57	58	1
65	57	73	1
66	57	74	1
67	58	59	1
68	58	75	1
69	58	76	1
70	59	60	1
71	59	77	1
72	59	78	1
73	60	61	1
74	60	79	1
75	60	80	1
76	61	65	1
77	61	81	1
78	61	82	1
79	20	62	1
80	62	63	1
81	62	64	1
82	63	83	1
83	63	84	1
84	63	85	1
85	64	86	1
86	64	87	1
87	64	88	1
88	62	65	1
