# created with PyMOL 2.5.4
@<TRIPOS>MOLECULE
ABI
121 125 2               
SMALL
USER_CHARGES
@<TRIPOS>ATOM
1	   N	20.340	6.540	4.761	N.2	1	ABI1	0.000	
2	   C	10.396	-0.423	3.682	C.3	1	ABI1	0.000	
3	   C	10.972	0.731	2.856	C.3	1	ABI1	0.000	
4	   C	11.523	1.844	3.760	C.3	1	ABI1	0.000	
5	   C	12.602	1.350	4.763	C.3	1	ABI1	0.000	
6	   C	12.112	1.593	6.210	C.3	1	ABI1	0.000	
7	   C	12.759	-0.158	4.594	C.2	1	ABI1	0.000	
8	   C	13.953	-0.764	4.498	C.2	1	ABI1	0.000	
9	   C	15.275	-0.055	4.524	C.3	1	ABI1	0.000	
10	   C	15.156	1.357	5.111	C.3	1	ABI1	0.000	
11	   C	16.430	2.163	4.831	C.3	1	ABI1	0.000	
12	   C	17.786	1.566	5.212	C.3	1	ABI1	0.000	
13	   C	18.610	2.821	5.092	C.2	1	ABI1	0.000	
14	   C	17.906	3.968	5.172	C.2	1	ABI1	0.000	
15	   C	18.459	5.203	5.132	C.2	1	ABI1	0.000	
16	   C	17.773	6.327	5.418	C.2	1	ABI1	0.000	
17	   C	18.371	7.527	5.367	C.2	1	ABI1	0.000	
18	   C	19.666	7.574	5.030	C.2	1	ABI1	0.000	
19	   C	19.755	5.418	4.816	C.2	1	ABI1	0.000	
20	   C	16.436	3.597	5.420	C.3	1	ABI1	0.000	
21	   C	16.219	3.642	6.948	C.3	1	ABI1	0.000	
22	   C	15.306	4.307	4.645	C.3	1	ABI1	0.000	
23	   C	13.951	3.590	4.830	C.3	1	ABI1	0.000	
24	   C	13.950	2.084	4.480	C.3	1	ABI1	0.000	
25	   C	11.492	-0.990	4.591	C.3	1	ABI1	0.000	
26	   O	9.323	0.080	4.430	O.3	1	ABI1	0.000	
27	   H	10.031	-1.182	2.953	 H	1	ABI1	0.000	
28	   H	10.181	1.149	2.186	 H	1	ABI1	0.000	
29	   H	11.781	0.354	2.186	 H	1	ABI1	0.000	
30	   H	10.674	2.318	4.306	 H	1	ABI1	0.000	
31	   H	11.914	2.648	3.096	 H	1	ABI1	0.000	
32	   H	11.881	2.661	6.412	 H	1	ABI1	0.000	
33	   H	11.165	1.054	6.431	 H	1	ABI1	0.000	
34	   H	12.858	1.255	6.964	 H	1	ABI1	0.000	
35	   H	13.999	-1.860	4.376	 H	1	ABI1	0.000	
36	   H	15.661	-0.028	3.478	 H	1	ABI1	0.000	
37	   H	15.994	-0.649	5.137	 H	1	ABI1	0.000	
38	   H	15.012	1.267	6.212	 H	1	ABI1	0.000	
39	   H	16.483	2.261	3.713	 H	1	ABI1	0.000	
40	   H	18.119	0.780	4.497	 H	1	ABI1	0.000	
41	   H	17.813	1.170	6.252	 H	1	ABI1	0.000	
42	   H	19.698	2.716	4.989	 H	1	ABI1	0.000	
43	   H	16.724	6.320	5.732	 H	1	ABI1	0.000	
44	   H	17.818	8.450	5.607	 H	1	ABI1	0.000	
45	   H	20.196	8.540	4.980	 H	1	ABI1	0.000	
46	   H	20.441	4.597	4.551	 H	1	ABI1	0.000	
47	   H	16.993	3.063	7.498	 H	1	ABI1	0.000	
48	   H	16.265	4.686	7.330	 H	1	ABI1	0.000	
49	   H	15.239	3.235	7.273	 H	1	ABI1	0.000	
50	   H	15.162	5.358	4.974	 H	1	ABI1	0.000	
51	   H	15.556	4.355	3.559	 H	1	ABI1	0.000	
52	   H	13.182	4.124	4.224	 H	1	ABI1	0.000	
53	   H	13.645	3.734	5.888	 H	1	ABI1	0.000	
54	   H	14.122	2.023	3.375	 H	1	ABI1	0.000	
55	   H	11.714	-2.036	4.273	 H	1	ABI1	0.000	
56	   H	11.153	-1.066	5.649	 H	1	ABI1	0.000	
57	   C	-5.980	-4.062	-14.138	C.3	2	ABL1	0.000	
58	   C	-4.545	-4.118	-13.598	C.3	2	ABL1	0.000	
59	   C	-4.450	-3.553	-12.171	C.3	2	ABL1	0.000	
60	   C	-3.014	-3.609	-11.624	C.3	2	ABL1	0.000	
61	   C	-2.921	-3.048	-10.196	C.3	2	ABL1	0.000	
62	   C	-1.487	-3.109	-9.645	C.3	2	ABL1	0.000	
63	   C	-1.399	-2.558	-8.212	C.3	2	ABL1	0.000	
64	   C	0.032	-2.629	-7.653	C.3	2	ABL1	0.000	
65	   C	0.111	-2.093	-6.214	C.3	2	ABL1	0.000	
66	   C	1.535	-2.182	-5.641	C.3	2	ABL1	0.000	
67	   C	1.601	-1.670	-4.193	C.3	2	ABL1	0.000	
68	   C	3.017	-1.781	-3.603	C.3	2	ABL1	0.000	
69	   C	3.066	-1.298	-2.144	C.3	2	ABL1	0.000	
70	   C	4.470	-1.436	-1.533	C.3	2	ABL1	0.000	
71	   C	4.498	-0.992	-0.061	C.3	2	ABL1	0.000	
72	   C	5.889	-1.159	0.572	C.3	2	ABL1	0.000	
73	   C	5.890	-0.758	2.056	C.3	2	ABL1	0.000	
74	   C	7.260	-0.957	2.706	C.3	2	ABL1	0.000	
75	   C	8.313	-0.814	4.853	C.3	2	ABL1	0.000	
76	   C	7.911	-0.335	6.255	C.3	2	ABL1	0.000	
77	   C	8.675	-2.294	4.965	C.3	2	ABL1	0.000	
78	   O	7.160	-0.607	4.063	O.3	2	ABL1	0.000	
79	   H	-6.035	-4.474	-15.172	 H	2	ABL1	0.000	
80	   H	-6.673	-4.657	-13.500	 H	2	ABL1	0.000	
81	   H	-6.357	-3.014	-14.171	 H	2	ABL1	0.000	
82	   H	-3.875	-3.537	-14.275	 H	2	ABL1	0.000	
83	   H	-4.191	-5.176	-13.606	 H	2	ABL1	0.000	
84	   H	-5.124	-4.136	-11.499	 H	2	ABL1	0.000	
85	   H	-4.806	-2.496	-12.168	 H	2	ABL1	0.000	
86	   H	-2.339	-3.025	-12.295	 H	2	ABL1	0.000	
87	   H	-2.657	-4.666	-11.630	 H	2	ABL1	0.000	
88	   H	-3.599	-3.629	-9.527	 H	2	ABL1	0.000	
89	   H	-3.274	-1.989	-10.190	 H	2	ABL1	0.000	
90	   H	-0.808	-2.523	-10.309	 H	2	ABL1	0.000	
91	   H	-1.133	-4.168	-9.655	 H	2	ABL1	0.000	
92	   H	-2.083	-3.141	-7.551	 H	2	ABL1	0.000	
93	   H	-1.747	-1.498	-8.201	 H	2	ABL1	0.000	
94	   H	0.717	-2.039	-8.307	 H	2	ABL1	0.000	
95	   H	0.382	-3.689	-7.672	 H	2	ABL1	0.000	
96	   H	-0.584	-2.679	-5.565	 H	2	ABL1	0.000	
97	   H	-0.230	-1.031	-6.195	 H	2	ABL1	0.000	
98	   H	2.230	-1.586	-6.278	 H	2	ABL1	0.000	
99	   H	1.879	-3.243	-5.673	 H	2	ABL1	0.000	
100	   H	0.894	-2.260	-3.563	 H	2	ABL1	0.000	
101	   H	1.268	-0.605	-4.160	 H	2	ABL1	0.000	
102	   H	3.725	-1.177	-4.218	 H	2	ABL1	0.000	
103	   H	3.354	-2.843	-3.651	 H	2	ABL1	0.000	
104	   H	2.343	-1.894	-1.537	 H	2	ABL1	0.000	
105	   H	2.743	-0.231	-2.094	 H	2	ABL1	0.000	
106	   H	5.195	-0.823	-2.121	 H	2	ABL1	0.000	
107	   H	4.799	-2.500	-1.602	 H	2	ABL1	0.000	
108	   H	3.757	-1.595	0.516	 H	2	ABL1	0.000	
109	   H	4.184	0.077	0.010	 H	2	ABL1	0.000	
110	   H	6.629	-0.537	0.016	 H	2	ABL1	0.000	
111	   H	6.209	-2.224	0.478	 H	2	ABL1	0.000	
112	   H	5.134	-1.371	2.603	 H	2	ABL1	0.000	
113	   H	5.584	0.311	2.153	 H	2	ABL1	0.000	
114	   H	8.003	-0.301	2.201	 H	2	ABL1	0.000	
115	   H	7.558	-2.023	2.603	 H	2	ABL1	0.000	
116	   H	8.758	-0.424	6.973	 H	2	ABL1	0.000	
117	   H	7.059	-0.925	6.663	 H	2	ABL1	0.000	
118	   H	7.599	0.735	6.245	 H	2	ABL1	0.000	
119	   H	7.773	-2.887	5.240	 H	2	ABL1	0.000	
120	   H	9.071	-2.759	4.039	 H	2	ABL1	0.000	
121	   H	9.418	-2.483	5.769	 H	2	ABL1	0.000	
@<TRIPOS>BOND
1 1 19 1
2 2 3 1
3 2 25 1
4 2 27 1
5 3 4 1
6 3 28 1
7 3 29 1
8 4 5 1
9 4 30 1
10 4 31 1
11 5 6 1
12 5 7 1
13 5 24 1
14 6 32 1
15 6 33 1
16 6 34 1
17 7 8 2
18 7 25 1
19 8 9 1
20 8 35 1
21 9 10 1
22 9 36 1
23 9 37 1
24 10 11 1
25 10 24 1
26 10 38 1
27 11 12 1
28 11 20 1
29 11 39 1
30 12 13 1
31 12 40 1
32 12 41 1
33 13 14 2
34 13 42 1
35 14 15 1
36 14 20 1
37 15 16 1
38 15 19 2
39 16 17 2
40 16 43 1
41 17 18 1
42 17 44 1
43 1 18 2
44 18 45 1
45 19 46 1
46 20 21 1
47 20 22 1
48 21 47 1
49 21 48 1
50 21 49 1
51 22 23 1
52 22 50 1
53 22 51 1
54 23 24 1
55 23 52 1
56 23 53 1
57 24 54 1
58 25 55 1
59 25 56 1
60 2 26 1
61 57 58 1
62 57 79 1
63 57 80 1
64 57 81 1
65 58 59 1
66 58 82 1
67 58 83 1
68 59 60 1
69 59 84 1
70 59 85 1
71 60 61 1
72 60 86 1
73 60 87 1
74 61 62 1
75 61 88 1
76 61 89 1
77 62 63 1
78 62 90 1
79 62 91 1
80 63 64 1
81 63 92 1
82 63 93 1
83 64 65 1
84 64 94 1
85 64 95 1
86 65 66 1
87 65 96 1
88 65 97 1
89 66 67 1
90 66 98 1
91 66 99 1
92 67 68 1
93 67 100 1
94 67 101 1
95 68 69 1
96 68 102 1
97 68 103 1
98 69 70 1
99 69 104 1
100 69 105 1
101 70 71 1
102 70 106 1
103 70 107 1
104 71 72 1
105 71 108 1
106 71 109 1
107 72 73 1
108 72 110 1
109 72 111 1
110 73 74 1
111 73 112 1
112 73 113 1
113 74 78 1
114 74 114 1
115 74 115 1
116 26 75 1
117 75 76 1
118 75 77 1
119 76 116 1
120 76 117 1
121 76 118 1
122 77 119 1
123 77 120 1
124 77 121 1
125 75 78 1
@<TRIPOS>SUBSTRUCTURE
1	ABI1	1	GROUP	1 ****	ABI
2	ABL1	57	GROUP	1 ****	ABL
