# created with PyMOL 2.5.4
@<TRIPOS>MOLECULE
PTX
177 183 2               
SMALL
USER_CHARGES
@<TRIPOS>ATOM
1	   C	31.820	9.555	-8.568	C.3	1	PTL1	0.000	
2	   C	30.294	9.487	-8.429	C.3	1	PTL1	0.000	
3	   C	29.845	8.245	-7.641	C.3	1	PTL1	0.000	
4	   C	28.316	8.173	-7.504	C.3	1	PTL1	0.000	
5	   C	27.865	6.927	-6.723	C.3	1	PTL1	0.000	
6	   C	26.334	6.851	-6.601	C.3	1	PTL1	0.000	
7	   C	25.876	5.597	-5.838	C.3	1	PTL1	0.000	
8	   C	24.344	5.515	-5.744	C.3	1	PTL1	0.000	
9	   C	23.873	4.247	-5.012	C.3	1	PTL1	0.000	
10	   C	22.339	4.155	-4.964	C.3	1	PTL1	0.000	
11	   C	21.853	2.869	-4.275	C.3	1	PTL1	0.000	
12	   C	20.319	2.765	-4.290	C.3	1	PTL1	0.000	
13	   C	19.813	1.457	-3.658	C.3	1	PTL1	0.000	
14	   C	18.283	1.340	-3.753	C.3	1	PTL1	0.000	
15	   C	17.757	0.010	-3.188	C.3	1	PTL1	0.000	
16	   C	16.237	-0.118	-3.379	C.3	1	PTL1	0.000	
17	   C	15.692	-1.468	-2.885	C.3	1	PTL1	0.000	
18	   C	14.196	-1.598	-3.180	C.3	1	PTL1	0.000	
19	   C	12.354	-3.066	-2.793	C.3	1	PTL1	0.000	
20	   C	11.711	-2.528	-4.075	C.3	1	PTL1	0.000	
21	   C	12.108	-4.578	-2.774	C.3	1	PTL1	0.000	
22	   O	13.747	-2.861	-2.757	O.3	1	PTL1	0.000	
23	   H	32.130	10.460	-9.141	 H	1	PTL1	0.000	
24	   H	32.313	9.601	-7.570	 H	1	PTL1	0.000	
25	   H	32.214	8.663	-9.106	 H	1	PTL1	0.000	
26	   H	29.833	9.472	-9.445	 H	1	PTL1	0.000	
27	   H	29.931	10.408	-7.912	 H	1	PTL1	0.000	
28	   H	30.308	8.265	-6.626	 H	1	PTL1	0.000	
29	   H	30.214	7.328	-8.159	 H	1	PTL1	0.000	
30	   H	27.856	8.158	-8.521	 H	1	PTL1	0.000	
31	   H	27.947	9.089	-6.984	 H	1	PTL1	0.000	
32	   H	28.318	6.944	-5.704	 H	1	PTL1	0.000	
33	   H	28.240	6.012	-7.241	 H	1	PTL1	0.000	
34	   H	25.885	6.845	-7.622	 H	1	PTL1	0.000	
35	   H	25.958	7.761	-6.076	 H	1	PTL1	0.000	
36	   H	26.311	5.606	-4.811	 H	1	PTL1	0.000	
37	   H	26.263	4.688	-6.357	 H	1	PTL1	0.000	
38	   H	23.914	5.524	-6.774	 H	1	PTL1	0.000	
39	   H	23.955	6.416	-5.213	 H	1	PTL1	0.000	
40	   H	24.280	4.242	-3.973	 H	1	PTL1	0.000	
41	   H	24.280	3.348	-5.535	 H	1	PTL1	0.000	
42	   H	21.940	4.186	-6.005	 H	1	PTL1	0.000	
43	   H	21.931	5.042	-4.424	 H	1	PTL1	0.000	
44	   H	22.220	2.845	-3.222	 H	1	PTL1	0.000	
45	   H	22.286	1.985	-4.801	 H	1	PTL1	0.000	
46	   H	19.962	2.822	-5.345	 H	1	PTL1	0.000	
47	   H	19.882	3.634	-3.743	 H	1	PTL1	0.000	
48	   H	20.129	1.409	-2.589	 H	1	PTL1	0.000	
49	   H	20.281	0.591	-4.185	 H	1	PTL1	0.000	
50	   H	17.980	1.426	-4.824	 H	1	PTL1	0.000	
51	   H	17.810	2.190	-3.205	 H	1	PTL1	0.000	
52	   H	18.009	-0.064	-2.104	 H	1	PTL1	0.000	
53	   H	18.265	-0.836	-3.709	 H	1	PTL1	0.000	
54	   H	15.999	-0.005	-4.464	 H	1	PTL1	0.000	
55	   H	15.722	0.711	-2.838	 H	1	PTL1	0.000	
56	   H	15.874	-1.565	-1.789	 H	1	PTL1	0.000	
57	   H	16.239	-2.300	-3.390	 H	1	PTL1	0.000	
58	   H	14.048	-1.502	-4.279	 H	1	PTL1	0.000	
59	   H	13.639	-0.794	-2.654	 H	1	PTL1	0.000	
60	   H	10.643	-2.840	-4.135	 H	1	PTL1	0.000	
61	   H	12.217	-2.912	-4.989	 H	1	PTL1	0.000	
62	   H	11.700	-1.416	-4.117	 H	1	PTL1	0.000	
63	   H	12.738	-5.124	-2.037	 H	1	PTL1	0.000	
64	   H	11.042	-4.831	-2.583	 H	1	PTL1	0.000	
65	   H	12.376	-5.029	-3.757	 H	1	PTL1	0.000	
66	   N	1.269	-2.552	5.177	N.pl3	2	PTX1	0.000	
67	   C	11.916	-2.828	-0.406	C.3	2	PTX1	0.000	
68	   C	13.043	-2.045	0.273	C.3	2	PTX1	0.000	
69	   C	12.735	-0.584	0.544	C.3	2	PTX1	0.000	
70	   C	11.127	0.440	-0.141	C.3	2	PTX1	0.000	
71	   C	11.358	-0.333	1.159	C.3	2	PTX1	0.000	
72	   C	12.066	1.618	2.474	C.2	2	PTX1	0.000	
73	   C	11.980	2.056	3.925	C.3	2	PTX1	0.000	
74	   C	10.463	-1.565	1.392	C.3	2	PTX1	0.000	
75	   C	9.033	-1.197	1.880	C.3	2	PTX1	0.000	
76	   C	7.951	0.785	0.915	C.2	2	PTX1	0.000	
77	   C	7.856	2.150	0.868	C.2	2	PTX1	0.000	
78	   C	7.025	2.779	0.014	C.2	2	PTX1	0.000	
79	   C	6.953	4.120	-0.015	C.2	2	PTX1	0.000	
80	   C	7.712	4.857	0.809	C.2	2	PTX1	0.000	
81	   C	8.541	4.244	1.665	C.2	2	PTX1	0.000	
82	   C	8.610	2.903	1.693	C.2	2	PTX1	0.000	
83	   C	8.578	-1.662	3.290	C.3	2	PTX1	0.000	
84	   C	7.061	-1.418	3.418	C.3	2	PTX1	0.000	
85	   C	6.240	-2.417	2.578	C.3	2	PTX1	0.000	
86	   C	4.537	-3.824	3.629	C.2	2	PTX1	0.000	
87	   C	3.098	-3.728	4.134	C.3	2	PTX1	0.000	
88	   C	2.691	-2.415	4.826	C.3	2	PTX1	0.000	
89	   C	0.565	-1.888	6.145	C.2	2	PTX1	0.000	
90	   C	1.005	-0.763	6.780	C.2	2	PTX1	0.000	
91	   C	1.778	0.155	6.170	C.2	2	PTX1	0.000	
92	   C	2.205	1.251	6.817	C.2	2	PTX1	0.000	
93	   C	1.853	1.461	8.093	C.2	2	PTX1	0.000	
94	   C	1.058	0.574	8.707	C.2	2	PTX1	0.000	
95	   C	0.634	-0.520	8.053	C.2	2	PTX1	0.000	
96	   C	3.568	-2.222	6.051	C.2	2	PTX1	0.000	
97	   C	3.447	-3.022	7.127	C.2	2	PTX1	0.000	
98	   C	4.229	-2.857	8.205	C.2	2	PTX1	0.000	
99	   C	5.154	-1.886	8.223	C.2	2	PTX1	0.000	
100	   C	5.289	-1.082	7.158	C.2	2	PTX1	0.000	
101	   C	4.500	-1.253	6.086	C.2	2	PTX1	0.000	
102	   C	6.996	-3.633	2.044	C.2	2	PTX1	0.000	
103	   C	6.235	-4.343	0.938	C.3	2	PTX1	0.000	
104	   C	8.264	-3.905	2.444	C.2	2	PTX1	0.000	
105	   C	9.242	-4.828	1.714	C.3	2	PTX1	0.000	
106	   C	9.349	-6.472	-0.048	C.2	2	PTX1	0.000	
107	   C	8.496	-7.030	-1.170	C.3	2	PTX1	0.000	
108	   C	10.531	-4.071	1.298	C.2	2	PTX1	0.000	
109	   C	10.567	-2.790	0.403	C.3	2	PTX1	0.000	
110	   C	9.410	-2.868	-0.622	C.3	2	PTX1	0.000	
111	   C	8.790	-3.153	3.673	C.3	2	PTX1	0.000	
112	   C	7.945	-3.632	4.898	C.3	2	PTX1	0.000	
113	   C	10.200	-3.491	4.234	C.3	2	PTX1	0.000	
114	   O	11.736	-2.374	-1.726	O.3	2	PTX1	0.000	
115	   O	12.436	0.170	-0.607	O.3	2	PTX1	0.000	
116	   O	11.468	0.403	2.343	O.3	2	PTX1	0.000	
117	   O	12.590	2.274	1.605	O.co2	2	PTX1	0.000	
118	   O	8.826	0.191	1.798	O.3	2	PTX1	0.000	
119	   O	7.273	0.098	0.176	O.co2	2	PTX1	0.000	
120	   O	9.238	-0.838	4.214	O.3	2	PTX1	0.000	
121	   O	4.964	-2.625	3.148	O.3	2	PTX1	0.000	
122	   O	5.146	-4.869	3.653	O.co2	2	PTX1	0.000	
123	   O	2.207	-3.966	3.060	O.3	2	PTX1	0.000	
124	   O	-0.430	-2.466	6.519	O.2	2	PTX1	0.000	
125	   O	8.659	-5.504	0.614	O.3	2	PTX1	0.000	
126	   O	10.476	-6.825	0.205	O.co2	2	PTX1	0.000	
127	   O	11.576	-4.489	1.756	O.2	2	PTX1	0.000	
128	   H	12.245	-3.886	-0.467	 H	2	PTX1	0.000	
129	   H	13.275	-2.516	1.257	 H	2	PTX1	0.000	
130	   H	13.988	-2.112	-0.309	 H	2	PTX1	0.000	
131	   H	13.579	-0.096	1.081	 H	2	PTX1	0.000	
132	   H	10.940	1.529	-0.059	 H	2	PTX1	0.000	
133	   H	10.389	-0.035	-0.821	 H	2	PTX1	0.000	
134	   H	10.926	2.028	4.285	 H	2	PTX1	0.000	
135	   H	12.597	1.385	4.564	 H	2	PTX1	0.000	
136	   H	12.356	3.096	4.048	 H	2	PTX1	0.000	
137	   H	10.996	-1.911	2.302	 H	2	PTX1	0.000	
138	   H	8.334	-1.677	1.183	 H	2	PTX1	0.000	
139	   H	6.378	2.229	-0.689	 H	2	PTX1	0.000	
140	   H	6.269	4.621	-0.721	 H	2	PTX1	0.000	
141	   H	7.653	5.958	0.784	 H	2	PTX1	0.000	
142	   H	9.168	4.843	2.347	 H	2	PTX1	0.000	
143	   H	9.307	2.453	2.418	 H	2	PTX1	0.000	
144	   H	9.115	0.080	3.952	 H	2	PTX1	0.000	
145	   H	6.782	-0.372	3.154	 H	2	PTX1	0.000	
146	   H	6.773	-1.460	4.490	 H	2	PTX1	0.000	
147	   H	6.024	-1.854	1.631	 H	2	PTX1	0.000	
148	   H	2.940	-4.580	4.836	 H	2	PTX1	0.000	
149	   H	2.237	-4.888	2.794	 H	2	PTX1	0.000	
150	   H	2.798	-1.599	4.076	 H	2	PTX1	0.000	
151	   H	0.763	-3.316	4.731	 H	2	PTX1	0.000	
152	   H	2.056	0.066	5.111	 H	2	PTX1	0.000	
153	   H	2.834	1.992	6.294	 H	2	PTX1	0.000	
154	   H	2.199	2.362	8.626	 H	2	PTX1	0.000	
155	   H	0.755	0.744	9.754	 H	2	PTX1	0.000	
156	   H	-0.009	-1.219	8.614	 H	2	PTX1	0.000	
157	   H	2.696	-3.828	7.135	 H	2	PTX1	0.000	
158	   H	4.112	-3.522	9.077	 H	2	PTX1	0.000	
159	   H	5.798	-1.749	9.106	 H	2	PTX1	0.000	
160	   H	6.047	-0.281	7.164	 H	2	PTX1	0.000	
161	   H	4.626	-0.578	5.223	 H	2	PTX1	0.000	
162	   H	6.552	-4.023	-0.076	 H	2	PTX1	0.000	
163	   H	6.297	-5.449	1.032	 H	2	PTX1	0.000	
164	   H	5.145	-4.128	0.985	 H	2	PTX1	0.000	
165	   H	9.505	-5.618	2.458	 H	2	PTX1	0.000	
166	   H	7.564	-7.482	-0.762	 H	2	PTX1	0.000	
167	   H	8.225	-6.221	-1.886	 H	2	PTX1	0.000	
168	   H	9.048	-7.817	-1.731	 H	2	PTX1	0.000	
169	   H	9.292	-1.924	-1.198	 H	2	PTX1	0.000	
170	   H	9.552	-3.700	-1.345	 H	2	PTX1	0.000	
171	   H	8.415	-3.064	-0.191	 H	2	PTX1	0.000	
172	   H	8.175	-3.049	5.819	 H	2	PTX1	0.000	
173	   H	6.848	-3.575	4.786	 H	2	PTX1	0.000	
174	   H	8.128	-4.707	5.124	 H	2	PTX1	0.000	
175	   H	10.379	-2.987	5.210	 H	2	PTX1	0.000	
176	   H	10.328	-4.582	4.417	 H	2	PTX1	0.000	
177	   H	11.076	-3.184	3.647	 H	2	PTX1	0.000	
@<TRIPOS>BOND
1 1 2 1
2 1 23 1
3 1 24 1
4 1 25 1
5 2 3 1
6 2 26 1
7 2 27 1
8 3 4 1
9 3 28 1
10 3 29 1
11 4 5 1
12 4 30 1
13 4 31 1
14 5 6 1
15 5 32 1
16 5 33 1
17 6 7 1
18 6 34 1
19 6 35 1
20 7 8 1
21 7 36 1
22 7 37 1
23 8 9 1
24 8 38 1
25 8 39 1
26 9 10 1
27 9 40 1
28 9 41 1
29 10 11 1
30 10 42 1
31 10 43 1
32 11 12 1
33 11 44 1
34 11 45 1
35 12 13 1
36 12 46 1
37 12 47 1
38 13 14 1
39 13 48 1
40 13 49 1
41 14 15 1
42 14 50 1
43 14 51 1
44 15 16 1
45 15 52 1
46 15 53 1
47 16 17 1
48 16 54 1
49 16 55 1
50 17 18 1
51 17 56 1
52 17 57 1
53 18 22 1
54 18 58 1
55 18 59 1
56 19 20 1
57 19 21 1
58 19 114 1
59 20 60 1
60 20 61 1
61 20 62 1
62 21 63 1
63 21 64 1
64 21 65 1
65 19 22 1
66 66 89 1
67 66 151 1
68 67 68 1
69 67 109 1
70 67 128 1
71 68 69 1
72 68 129 1
73 68 130 1
74 69 71 1
75 69 115 1
76 69 131 1
77 70 71 1
78 70 132 1
79 70 133 1
80 71 74 1
81 71 116 1
82 72 73 1
83 72 117 2
84 73 134 1
85 73 135 1
86 73 136 1
87 74 75 1
88 74 109 1
89 74 137 1
90 75 83 1
91 75 118 1
92 75 138 1
93 76 77 1
94 76 119 2
95 77 78 1
96 77 82 2
97 78 79 2
98 78 139 1
99 79 80 1
100 79 140 1
101 80 81 2
102 80 141 1
103 81 82 1
104 81 142 1
105 82 143 1
106 83 84 1
107 83 111 1
108 83 120 1
109 84 85 1
110 84 145 1
111 84 146 1
112 85 102 1
113 85 121 1
114 85 147 1
115 86 87 1
116 86 122 2
117 87 88 1
118 87 123 1
119 87 148 1
120 66 88 1
121 88 96 1
122 88 150 1
123 89 90 1
124 89 124 2
125 90 91 1
126 90 95 2
127 91 92 2
128 91 152 1
129 92 93 1
130 92 153 1
131 93 94 2
132 93 154 1
133 94 95 1
134 94 155 1
135 95 156 1
136 96 97 1
137 96 101 2
138 97 98 2
139 97 157 1
140 98 99 1
141 98 158 1
142 99 100 2
143 99 159 1
144 100 101 1
145 100 160 1
146 101 161 1
147 102 103 1
148 102 104 2
149 103 162 1
150 103 163 1
151 103 164 1
152 104 105 1
153 104 111 1
154 105 108 1
155 105 125 1
156 105 165 1
157 106 107 1
158 106 126 2
159 107 166 1
160 107 167 1
161 107 168 1
162 108 109 1
163 108 127 2
164 109 110 1
165 110 169 1
166 110 170 1
167 110 171 1
168 111 112 1
169 111 113 1
170 112 172 1
171 112 173 1
172 112 174 1
173 113 175 1
174 113 176 1
175 113 177 1
176 67 114 1
177 70 115 1
178 72 116 1
179 76 118 1
180 120 144 1
181 86 121 1
182 123 149 1
183 106 125 1
@<TRIPOS>SUBSTRUCTURE
1	PTL1	1	GROUP	1 ****	PTL
2	PTX1	66	GROUP	1 ****	PTX
