# created with PyMOL 2.5.4
@<TRIPOS>MOLECULE
PTX
141 147 2               
SMALL
USER_CHARGES
@<TRIPOS>ATOM
1	   C	-0.297	10.741	0.879	C.3	1	PTL1	0.000	
2	   C	-0.454	9.231	1.102	C.3	1	PTL1	0.000	
3	   C	0.851	8.587	1.598	C.3	1	PTL1	0.000	
4	   C	0.700	7.073	1.816	C.3	1	PTL1	0.000	
5	   C	2.008	6.430	2.303	C.3	1	PTL1	0.000	
6	   C	1.864	4.919	2.494	C.3	1	PTL1	0.000	
7	   C	3.241	2.993	2.842	C.3	1	PTL1	0.000	
8	   C	4.583	2.674	3.502	C.3	1	PTL1	0.000	
9	   C	2.114	2.276	3.577	C.3	1	PTL1	0.000	
10	   O	3.103	4.400	2.912	O.3	1	PTL1	0.000	
11	   H	-1.250	11.193	0.519	 H	1	PTL1	0.000	
12	   H	-0.011	11.259	1.823	 H	1	PTL1	0.000	
13	   H	0.488	10.955	0.118	 H	1	PTL1	0.000	
14	   H	-0.767	8.749	0.144	 H	1	PTL1	0.000	
15	   H	-1.266	9.051	1.846	 H	1	PTL1	0.000	
16	   H	1.160	9.070	2.556	 H	1	PTL1	0.000	
17	   H	1.660	8.775	0.853	 H	1	PTL1	0.000	
18	   H	0.386	6.593	0.859	 H	1	PTL1	0.000	
19	   H	-0.106	6.884	2.564	 H	1	PTL1	0.000	
20	   H	2.321	6.898	3.266	 H	1	PTL1	0.000	
21	   H	2.815	6.630	1.557	 H	1	PTL1	0.000	
22	   H	1.549	4.460	1.530	 H	1	PTL1	0.000	
23	   H	1.094	4.720	3.273	 H	1	PTL1	0.000	
24	   H	4.799	1.583	3.532	 H	1	PTL1	0.000	
25	   H	4.604	3.034	4.556	 H	1	PTL1	0.000	
26	   H	5.427	3.167	2.966	 H	1	PTL1	0.000	
27	   H	2.041	2.643	4.626	 H	1	PTL1	0.000	
28	   H	1.115	2.421	3.114	 H	1	PTL1	0.000	
29	   H	2.287	1.179	3.642	 H	1	PTL1	0.000	
30	   N	4.192	-0.174	-0.613	N.pl3	2	PTX1	0.000	
31	   C	3.234	1.385	1.037	C.3	2	PTX1	0.000	
32	   C	1.783	0.936	0.803	C.2	2	PTX1	0.000	
33	   C	0.504	-1.097	0.652	C.3	2	PTX1	0.000	
34	   C	-0.425	-0.608	-0.476	C.3	2	PTX1	0.000	
35	   C	-1.241	-1.760	-1.090	C.3	2	PTX1	0.000	
36	   C	-2.301	-2.212	-0.049	C.3	2	PTX1	0.000	
37	   C	-3.276	-0.464	1.373	C.2	2	PTX1	0.000	
38	   C	-4.150	0.582	1.494	C.2	2	PTX1	0.000	
39	   C	-4.274	1.280	2.641	C.2	2	PTX1	0.000	
40	   C	-5.140	2.301	2.736	C.2	2	PTX1	0.000	
41	   C	-5.900	2.644	1.685	C.2	2	PTX1	0.000	
42	   C	-5.786	1.959	0.539	C.2	2	PTX1	0.000	
43	   C	-4.918	0.939	0.446	C.2	2	PTX1	0.000	
44	   C	-3.091	-3.513	-0.340	C.3	2	PTX1	0.000	
45	   C	-2.620	-4.789	0.450	C.3	2	PTX1	0.000	
46	   C	-2.194	-4.535	1.916	C.3	2	PTX1	0.000	
47	   C	-1.404	-5.394	-0.321	C.2	2	PTX1	0.000	
48	   C	0.074	-4.962	-0.119	C.3	2	PTX1	0.000	
49	   C	0.863	-6.825	1.193	C.2	2	PTX1	0.000	
50	   C	1.347	-7.135	2.596	C.3	2	PTX1	0.000	
51	   C	0.250	-3.450	-0.247	C.2	2	PTX1	0.000	
52	   C	0.724	-2.615	0.711	C.2	2	PTX1	0.000	
53	   C	1.403	-3.045	1.996	C.3	2	PTX1	0.000	
54	   C	-0.200	-2.811	-1.561	C.3	2	PTX1	0.000	
55	   C	1.093	-2.213	-2.200	C.3	2	PTX1	0.000	
56	   C	-0.653	-3.716	-2.741	C.3	2	PTX1	0.000	
57	   C	-3.739	-5.872	0.503	C.3	2	PTX1	0.000	
58	   C	-4.719	-5.837	-0.665	C.3	2	PTX1	0.000	
59	   C	-5.468	-4.520	-0.764	C.3	2	PTX1	0.000	
60	   C	-5.477	-3.059	0.642	C.3	2	PTX1	0.000	
61	   C	-4.594	-3.275	-0.590	C.3	2	PTX1	0.000	
62	   C	-5.942	-1.864	-2.082	C.2	2	PTX1	0.000	
63	   C	-5.676	-0.927	-3.246	C.3	2	PTX1	0.000	
64	   C	4.097	1.244	-0.239	C.3	2	PTX1	0.000	
65	   C	4.670	-0.732	-1.769	C.2	2	PTX1	0.000	
66	   C	5.266	-0.056	-2.796	C.2	2	PTX1	0.000	
67	   C	5.156	-0.532	-4.054	C.2	2	PTX1	0.000	
68	   C	5.712	0.101	-5.100	C.2	2	PTX1	0.000	
69	   C	6.408	1.230	-4.911	C.2	2	PTX1	0.000	
70	   C	6.551	1.707	-3.666	C.2	2	PTX1	0.000	
71	   C	5.991	1.066	-2.628	C.2	2	PTX1	0.000	
72	   C	3.507	2.106	-1.343	C.2	2	PTX1	0.000	
73	   C	2.564	1.641	-2.182	C.2	2	PTX1	0.000	
74	   C	2.048	2.415	-3.149	C.2	2	PTX1	0.000	
75	   C	2.469	3.681	-3.290	C.2	2	PTX1	0.000	
76	   C	3.404	4.163	-2.459	C.2	2	PTX1	0.000	
77	   C	3.914	3.380	-1.496	C.2	2	PTX1	0.000	
78	   O	3.329	2.729	1.460	O.3	2	PTX1	0.000	
79	   O	0.825	1.675	0.757	O.co2	2	PTX1	0.000	
80	   O	1.740	-0.421	0.700	O.3	2	PTX1	0.000	
81	   O	-1.946	-1.262	-2.194	O.3	2	PTX1	0.000	
82	   O	-3.187	-1.144	0.177	O.3	2	PTX1	0.000	
83	   O	-2.580	-0.793	2.314	O.co2	2	PTX1	0.000	
84	   O	-1.615	-6.235	-1.171	O.2	2	PTX1	0.000	
85	   O	0.578	-5.497	1.092	O.3	2	PTX1	0.000	
86	   O	0.744	-7.640	0.307	O.co2	2	PTX1	0.000	
87	   O	-4.487	-5.777	1.697	O.3	2	PTX1	0.000	
88	   O	-6.226	-4.236	0.390	O.3	2	PTX1	0.000	
89	   O	-4.759	-2.378	-1.649	O.3	2	PTX1	0.000	
90	   O	-7.043	-2.092	-1.638	O.co2	2	PTX1	0.000	
91	   O	4.370	-1.898	-1.891	O.2	2	PTX1	0.000	
92	   H	3.680	0.725	1.816	 H	2	PTX1	0.000	
93	   H	-0.014	-0.862	1.616	 H	2	PTX1	0.000	
94	   H	-1.111	0.188	-0.110	 H	2	PTX1	0.000	
95	   H	0.144	-0.086	-1.275	 H	2	PTX1	0.000	
96	   H	-2.558	-0.585	-1.889	 H	2	PTX1	0.000	
97	   H	-1.751	-2.394	0.885	 H	2	PTX1	0.000	
98	   H	-3.678	1.045	3.539	 H	2	PTX1	0.000	
99	   H	-5.231	2.862	3.681	 H	2	PTX1	0.000	
100	   H	-6.612	3.483	1.764	 H	2	PTX1	0.000	
101	   H	-6.408	2.236	-0.330	 H	2	PTX1	0.000	
102	   H	-4.867	0.412	-0.520	 H	2	PTX1	0.000	
103	   H	-2.855	-3.763	-1.395	 H	2	PTX1	0.000	
104	   H	-2.952	-3.948	2.479	 H	2	PTX1	0.000	
105	   H	-2.022	-5.493	2.458	 H	2	PTX1	0.000	
106	   H	-1.252	-3.972	2.032	 H	2	PTX1	0.000	
107	   H	0.699	-5.384	-0.942	 H	2	PTX1	0.000	
108	   H	0.563	-6.873	3.342	 H	2	PTX1	0.000	
109	   H	1.580	-8.218	2.703	 H	2	PTX1	0.000	
110	   H	2.272	-6.557	2.822	 H	2	PTX1	0.000	
111	   H	0.680	-3.406	2.758	 H	2	PTX1	0.000	
112	   H	2.189	-3.809	1.810	 H	2	PTX1	0.000	
113	   H	1.960	-2.210	2.474	 H	2	PTX1	0.000	
114	   H	0.864	-1.562	-3.075	 H	2	PTX1	0.000	
115	   H	1.730	-1.623	-1.515	 H	2	PTX1	0.000	
116	   H	1.785	-3.011	-2.553	 H	2	PTX1	0.000	
117	   H	-0.838	-3.110	-3.657	 H	2	PTX1	0.000	
118	   H	0.119	-4.470	-3.015	 H	2	PTX1	0.000	
119	   H	-1.578	-4.298	-2.624	 H	2	PTX1	0.000	
120	   H	-3.280	-6.889	0.560	 H	2	PTX1	0.000	
121	   H	-5.416	-5.945	1.528	 H	2	PTX1	0.000	
122	   H	-4.181	-6.003	-1.627	 H	2	PTX1	0.000	
123	   H	-5.456	-6.669	-0.569	 H	2	PTX1	0.000	
124	   H	-6.136	-4.505	-1.653	 H	2	PTX1	0.000	
125	   H	-6.126	-2.161	0.646	 H	2	PTX1	0.000	
126	   H	-4.935	-3.151	1.606	 H	2	PTX1	0.000	
127	   H	-4.940	-0.142	-2.961	 H	2	PTX1	0.000	
128	   H	-5.277	-1.498	-4.115	 H	2	PTX1	0.000	
129	   H	-6.613	-0.418	-3.566	 H	2	PTX1	0.000	
130	   H	5.117	1.584	0.060	 H	2	PTX1	0.000	
131	   H	3.751	-0.855	0.006	 H	2	PTX1	0.000	
132	   H	4.584	-1.447	-4.283	 H	2	PTX1	0.000	
133	   H	5.593	-0.303	-6.119	 H	2	PTX1	0.000	
134	   H	6.869	1.752	-5.765	 H	2	PTX1	0.000	
135	   H	7.146	2.621	-3.497	 H	2	PTX1	0.000	
136	   H	6.199	1.487	-1.637	 H	2	PTX1	0.000	
137	   H	2.199	0.608	-2.089	 H	2	PTX1	0.000	
138	   H	1.277	2.011	-3.826	 H	2	PTX1	0.000	
139	   H	2.047	4.321	-4.083	 H	2	PTX1	0.000	
140	   H	3.753	5.203	-2.567	 H	2	PTX1	0.000	
141	   H	4.681	3.797	-0.822	 H	2	PTX1	0.000	
@<TRIPOS>BOND
1 1 2 1
2 1 11 1
3 1 12 1
4 1 13 1
5 2 3 1
6 2 14 1
7 2 15 1
8 3 4 1
9 3 16 1
10 3 17 1
11 4 5 1
12 4 18 1
13 4 19 1
14 5 6 1
15 5 20 1
16 5 21 1
17 6 10 1
18 6 22 1
19 6 23 1
20 7 8 1
21 7 9 1
22 7 78 1
23 8 24 1
24 8 25 1
25 8 26 1
26 9 27 1
27 9 28 1
28 9 29 1
29 7 10 1
30 30 65 1
31 30 131 1
32 31 32 1
33 31 64 1
34 31 92 1
35 32 79 2
36 32 80 1
37 33 34 1
38 33 52 1
39 33 93 1
40 34 35 1
41 34 94 1
42 34 95 1
43 35 36 1
44 35 54 1
45 35 81 1
46 36 44 1
47 36 82 1
48 36 97 1
49 37 38 1
50 37 83 2
51 38 39 1
52 38 43 2
53 39 40 2
54 39 98 1
55 40 41 1
56 40 99 1
57 41 42 2
58 41 100 1
59 42 43 1
60 42 101 1
61 43 102 1
62 44 45 1
63 44 61 1
64 44 103 1
65 45 46 1
66 45 47 1
67 45 57 1
68 46 104 1
69 46 105 1
70 46 106 1
71 47 48 1
72 47 84 2
73 48 51 1
74 48 85 1
75 48 107 1
76 49 50 1
77 49 86 2
78 50 108 1
79 50 109 1
80 50 110 1
81 51 52 2
82 51 54 1
83 52 53 1
84 53 111 1
85 53 112 1
86 53 113 1
87 54 55 1
88 54 56 1
89 55 114 1
90 55 115 1
91 55 116 1
92 56 117 1
93 56 118 1
94 56 119 1
95 57 58 1
96 57 87 1
97 57 120 1
98 58 59 1
99 58 122 1
100 58 123 1
101 59 61 1
102 59 88 1
103 59 124 1
104 60 61 1
105 60 125 1
106 60 126 1
107 61 89 1
108 62 63 1
109 62 90 2
110 63 127 1
111 63 128 1
112 63 129 1
113 30 64 1
114 64 72 1
115 64 130 1
116 65 66 1
117 65 91 2
118 66 67 1
119 66 71 2
120 67 68 2
121 67 132 1
122 68 69 1
123 68 133 1
124 69 70 2
125 69 134 1
126 70 71 1
127 70 135 1
128 71 136 1
129 72 73 1
130 72 77 2
131 73 74 2
132 73 137 1
133 74 75 1
134 74 138 1
135 75 76 2
136 75 139 1
137 76 77 1
138 76 140 1
139 77 141 1
140 31 78 1
141 33 80 1
142 81 96 1
143 37 82 1
144 49 85 1
145 87 121 1
146 60 88 1
147 62 89 1
@<TRIPOS>SUBSTRUCTURE
1	PTL1	1	GROUP	1 ****	PTL
2	PTX1	30	GROUP	1 ****	PTX
