# created with PyMOL 2.5.4
@<TRIPOS>MOLECULE
PTX
126 132 2               
SMALL
USER_CHARGES
@<TRIPOS>ATOM
1	   C	6.534	-1.946	-1.191	C.3	1	PTL1	0.000	
2	   C	5.604	0.090	-0.313	C.3	1	PTL1	0.000	
3	   C	6.119	1.436	0.201	C.3	1	PTL1	0.000	
4	   C	4.617	0.255	-1.463	C.3	1	PTL1	0.000	
5	   O	6.757	-0.645	-0.688	O.3	1	PTL1	0.000	
6	   I	5.397	1.152	-3.261	 I	1	PTL1	0.000	
7	   H	7.530	-2.414	-1.359	 H	1	PTL1	0.000	
8	   H	5.981	-2.577	-0.462	 H	1	PTL1	0.000	
9	   H	6.010	-1.916	-2.169	 H	1	PTL1	0.000	
10	   H	5.308	2.183	0.348	 H	1	PTL1	0.000	
11	   H	6.838	1.897	-0.512	 H	1	PTL1	0.000	
12	   H	6.661	1.321	1.168	 H	1	PTL1	0.000	
13	   H	4.157	-0.718	-1.741	 H	1	PTL1	0.000	
14	   H	3.785	0.918	-1.133	 H	1	PTL1	0.000	
15	   N	2.662	-0.415	3.503	N.pl3	2	PTX1	0.000	
16	   C	3.931	-0.189	1.425	C.3	2	PTX1	0.000	
17	   C	2.618	-0.512	0.696	C.2	2	PTX1	0.000	
18	   C	0.485	0.592	0.234	C.3	2	PTX1	0.000	
19	   C	0.418	1.599	-0.931	C.3	2	PTX1	0.000	
20	   C	-0.698	1.240	-1.936	C.3	2	PTX1	0.000	
21	   C	-2.067	1.551	-1.275	C.3	2	PTX1	0.000	
22	   C	-2.198	3.556	0.139	C.2	2	PTX1	0.000	
23	   C	-2.369	4.912	0.217	C.2	2	PTX1	0.000	
24	   C	-2.428	5.557	1.399	C.2	2	PTX1	0.000	
25	   C	-2.598	6.888	1.450	C.2	2	PTX1	0.000	
26	   C	-2.713	7.600	0.319	C.2	2	PTX1	0.000	
27	   C	-2.655	6.971	-0.863	C.2	2	PTX1	0.000	
28	   C	-2.483	5.640	-0.910	C.2	2	PTX1	0.000	
29	   C	-3.345	1.017	-1.971	C.3	2	PTX1	0.000	
30	   C	-3.983	-0.278	-1.343	C.3	2	PTX1	0.000	
31	   C	-3.922	-0.357	0.200	C.3	2	PTX1	0.000	
32	   C	-3.232	-1.518	-1.925	C.2	2	PTX1	0.000	
33	   C	-1.910	-2.105	-1.356	C.3	2	PTX1	0.000	
34	   C	-2.719	-4.123	-0.306	C.2	2	PTX1	0.000	
35	   C	-2.951	-4.694	1.079	C.3	2	PTX1	0.000	
36	   C	-0.833	-1.043	-1.149	C.2	2	PTX1	0.000	
37	   C	-0.259	-0.727	0.040	C.2	2	PTX1	0.000	
38	   C	-0.414	-1.501	1.334	C.3	2	PTX1	0.000	
39	   C	-0.427	-0.224	-2.379	C.3	2	PTX1	0.000	
40	   C	1.080	-0.521	-2.660	C.3	2	PTX1	0.000	
41	   C	-0.987	-0.636	-3.772	C.3	2	PTX1	0.000	
42	   C	-5.488	-0.413	-1.720	C.3	2	PTX1	0.000	
43	   C	-5.871	0.211	-3.057	C.3	2	PTX1	0.000	
44	   C	-5.607	1.704	-3.103	C.3	2	PTX1	0.000	
45	   C	-5.138	2.871	-1.513	C.3	2	PTX1	0.000	
46	   C	-4.256	2.133	-2.524	C.3	2	PTX1	0.000	
47	   C	-3.987	4.051	-4.036	C.2	2	PTX1	0.000	
48	   C	-2.895	4.595	-4.939	C.3	2	PTX1	0.000	
49	   C	3.917	-0.803	2.845	C.3	2	PTX1	0.000	
50	   C	2.104	-0.921	4.648	C.2	2	PTX1	0.000	
51	   C	2.716	-1.783	5.513	C.2	2	PTX1	0.000	
52	   C	1.970	-2.654	6.225	C.2	2	PTX1	0.000	
53	   C	2.529	-3.528	7.076	C.2	2	PTX1	0.000	
54	   C	3.857	-3.546	7.249	C.2	2	PTX1	0.000	
55	   C	4.614	-2.671	6.573	C.2	2	PTX1	0.000	
56	   C	4.046	-1.801	5.723	C.2	2	PTX1	0.000	
57	   C	4.093	-2.312	2.779	C.2	2	PTX1	0.000	
58	   C	3.052	-3.152	2.633	C.2	2	PTX1	0.000	
59	   C	3.230	-4.481	2.576	C.2	2	PTX1	0.000	
60	   C	4.464	-4.997	2.663	C.2	2	PTX1	0.000	
61	   C	5.514	-4.176	2.805	C.2	2	PTX1	0.000	
62	   C	5.325	-2.849	2.861	C.2	2	PTX1	0.000	
63	   O	5.077	-0.670	0.756	O.3	2	PTX1	0.000	
64	   O	2.399	-1.560	0.132	O.co2	2	PTX1	0.000	
65	   O	1.775	0.553	0.804	O.3	2	PTX1	0.000	
66	   O	-0.586	2.091	-3.046	O.3	2	PTX1	0.000	
67	   O	-2.155	2.942	-1.093	O.3	2	PTX1	0.000	
68	   O	-2.091	2.892	1.152	O.co2	2	PTX1	0.000	
69	   O	-3.678	-2.057	-2.916	O.2	2	PTX1	0.000	
70	   O	-2.188	-2.874	-0.199	O.3	2	PTX1	0.000	
71	   O	-2.973	-4.696	-1.341	O.co2	2	PTX1	0.000	
72	   O	-6.316	0.152	-0.725	O.3	2	PTX1	0.000	
73	   O	-6.332	2.417	-2.127	O.3	2	PTX1	0.000	
74	   O	-3.536	2.920	-3.428	O.3	2	PTX1	0.000	
75	   O	-5.071	4.569	-3.903	O.co2	2	PTX1	0.000	
76	   O	0.926	-0.666	4.757	O.2	2	PTX1	0.000	
77	   H	4.010	0.915	1.546	 H	2	PTX1	0.000	
78	   H	-0.136	1.072	1.036	 H	2	PTX1	0.000	
79	   H	0.298	2.634	-0.538	 H	2	PTX1	0.000	
80	   H	1.397	1.678	-1.454	 H	2	PTX1	0.000	
81	   H	-0.809	2.987	-2.774	 H	2	PTX1	0.000	
82	   H	-2.044	1.079	-0.281	 H	2	PTX1	0.000	
83	   H	-2.341	5.028	2.362	 H	2	PTX1	0.000	
84	   H	-2.645	7.403	2.425	 H	2	PTX1	0.000	
85	   H	-2.853	8.693	0.361	 H	2	PTX1	0.000	
86	   H	-2.747	7.549	-1.798	 H	2	PTX1	0.000	
87	   H	-2.439	5.177	-1.909	 H	2	PTX1	0.000	
88	   H	-3.004	0.673	-2.968	 H	2	PTX1	0.000	
89	   H	-4.290	0.573	0.686	 H	2	PTX1	0.000	
90	   H	-4.521	-1.213	0.587	 H	2	PTX1	0.000	
91	   H	-2.909	-0.516	0.607	 H	2	PTX1	0.000	
92	   H	-1.462	-2.799	-2.107	 H	2	PTX1	0.000	
93	   H	-3.652	-4.045	1.652	 H	2	PTX1	0.000	
94	   H	-3.394	-5.713	1.018	 H	2	PTX1	0.000	
95	   H	-1.988	-4.766	1.634	 H	2	PTX1	0.000	
96	   H	-1.424	-1.403	1.785	 H	2	PTX1	0.000	
97	   H	-0.151	-2.573	1.202	 H	2	PTX1	0.000	
98	   H	0.286	-1.137	2.115	 H	2	PTX1	0.000	
99	   H	1.487	0.113	-3.480	 H	2	PTX1	0.000	
100	   H	1.758	-0.368	-1.806	 H	2	PTX1	0.000	
101	   H	1.251	-1.587	-2.936	 H	2	PTX1	0.000	
102	   H	-0.569	0.005	-4.581	 H	2	PTX1	0.000	
103	   H	-0.724	-1.685	-4.037	 H	2	PTX1	0.000	
104	   H	-2.072	-0.591	-3.939	 H	2	PTX1	0.000	
105	   H	-5.784	-1.491	-1.726	 H	2	PTX1	0.000	
106	   H	-7.072	0.591	-1.123	 H	2	PTX1	0.000	
107	   H	-5.301	-0.267	-3.887	 H	2	PTX1	0.000	
108	   H	-6.951	0.025	-3.269	 H	2	PTX1	0.000	
109	   H	-5.842	2.121	-4.108	 H	2	PTX1	0.000	
110	   H	-5.084	3.978	-1.510	 H	2	PTX1	0.000	
111	   H	-5.064	2.474	-0.479	 H	2	PTX1	0.000	
112	   H	-1.956	4.763	-4.364	 H	2	PTX1	0.000	
113	   H	-2.689	3.878	-5.766	 H	2	PTX1	0.000	
114	   H	-3.200	5.566	-5.389	 H	2	PTX1	0.000	
115	   H	4.767	-0.316	3.379	 H	2	PTX1	0.000	
116	   H	2.036	0.210	2.993	 H	2	PTX1	0.000	
117	   H	0.873	-2.703	6.119	 H	2	PTX1	0.000	
118	   H	1.896	-4.239	7.634	 H	2	PTX1	0.000	
119	   H	4.320	-4.260	7.950	 H	2	PTX1	0.000	
120	   H	5.706	-2.659	6.729	 H	2	PTX1	0.000	
121	   H	4.723	-1.081	5.247	 H	2	PTX1	0.000	
122	   H	2.026	-2.762	2.557	 H	2	PTX1	0.000	
123	   H	2.360	-5.149	2.458	 H	2	PTX1	0.000	
124	   H	4.614	-6.089	2.617	 H	2	PTX1	0.000	
125	   H	6.533	-4.592	2.875	 H	2	PTX1	0.000	
126	   H	6.204	-2.193	2.976	 H	2	PTX1	0.000	
@<TRIPOS>BOND
1 1 5 1
2 1 7 1
3 1 8 1
4 1 9 1
5 2 3 1
6 2 4 1
7 2 63 1
8 3 10 1
9 3 11 1
10 3 12 1
11 4 6 1
12 4 13 1
13 4 14 1
14 2 5 1
15 15 50 1
16 15 116 1
17 16 17 1
18 16 49 1
19 16 77 1
20 17 64 2
21 17 65 1
22 18 19 1
23 18 37 1
24 18 78 1
25 19 20 1
26 19 79 1
27 19 80 1
28 20 21 1
29 20 39 1
30 20 66 1
31 21 29 1
32 21 67 1
33 21 82 1
34 22 23 1
35 22 68 2
36 23 24 1
37 23 28 2
38 24 25 2
39 24 83 1
40 25 26 1
41 25 84 1
42 26 27 2
43 26 85 1
44 27 28 1
45 27 86 1
46 28 87 1
47 29 30 1
48 29 46 1
49 29 88 1
50 30 31 1
51 30 32 1
52 30 42 1
53 31 89 1
54 31 90 1
55 31 91 1
56 32 33 1
57 32 69 2
58 33 36 1
59 33 70 1
60 33 92 1
61 34 35 1
62 34 71 2
63 35 93 1
64 35 94 1
65 35 95 1
66 36 37 2
67 36 39 1
68 37 38 1
69 38 96 1
70 38 97 1
71 38 98 1
72 39 40 1
73 39 41 1
74 40 99 1
75 40 100 1
76 40 101 1
77 41 102 1
78 41 103 1
79 41 104 1
80 42 43 1
81 42 72 1
82 42 105 1
83 43 44 1
84 43 107 1
85 43 108 1
86 44 46 1
87 44 73 1
88 44 109 1
89 45 46 1
90 45 110 1
91 45 111 1
92 46 74 1
93 47 48 1
94 47 75 2
95 48 112 1
96 48 113 1
97 48 114 1
98 15 49 1
99 49 57 1
100 49 115 1
101 50 51 1
102 50 76 2
103 51 52 1
104 51 56 2
105 52 53 2
106 52 117 1
107 53 54 1
108 53 118 1
109 54 55 2
110 54 119 1
111 55 56 1
112 55 120 1
113 56 121 1
114 57 58 1
115 57 62 2
116 58 59 2
117 58 122 1
118 59 60 1
119 59 123 1
120 60 61 2
121 60 124 1
122 61 62 1
123 61 125 1
124 62 126 1
125 16 63 1
126 18 65 1
127 66 81 1
128 22 67 1
129 34 70 1
130 72 106 1
131 45 73 1
132 47 74 1
@<TRIPOS>SUBSTRUCTURE
1	PTL1	1	GROUP	1 ****	PTL
2	PTX1	15	GROUP	1 ****	PTX
