@<TRIPOS>MOLECULE
LST
53 56 1 0 0
SMALL
USER_CHARGES


@<TRIPOS>ATOM
      1 C           5.8104   -1.2410   -5.2468 C.3       1     LST    0.0000
      2 C           6.2698    0.1853   -4.9162 C.3       1     LST    0.0000
      3 C           6.2813    0.4430   -3.4016 C.3       1     LST    0.0000
      4 C           6.7320    1.8730   -3.0643 C.3       1     LST    0.0000
      5 C           6.7258    2.0982   -1.5760 C.ar      1     LST    0.0000
      6 N           7.8202    2.0841   -0.9384 N.ar      1     LST    0.0000
      7 C           7.5317    2.2666    0.2815 C.ar      1     LST    0.0000
      8 Cl          8.6809    2.2896    1.5588 Cl        1     LST    0.0000
      9 C           6.2047    2.4113    0.4495 C.ar      1     LST    0.0000
     10 C           5.4930    2.6062    1.7583 C.3       1     LST    0.0000
     11 O           5.7653    1.4939    2.6035 O.3       1     LST    0.0000
     12 N           5.7886    2.2901   -0.7434 N.ar      1     LST    0.0000
     13 C           4.3669    2.3760   -1.1196 C.3       1     LST    0.0000
     14 C           3.5347    1.2676   -0.5078 C.ar      1     LST    0.0000
     15 C           4.0778    0.1442   -0.0121 C.ar      1     LST    0.0000
     16 C           3.3157   -0.7817    0.5872 C.ar      1     LST    0.0000
     17 C           1.9797   -0.6462    0.7146 C.ar      1     LST    0.0000
     18 C           1.2542   -1.6079    1.3349 C.ar      1     LST    0.0000
     19 C           0.0862   -1.9708    0.7622 C.ar      1     LST    0.0000
     20 C          -0.6012   -3.0456    1.1729 C.ar      1     LST    0.0000
     21 C          -0.1172   -3.7893    2.1739 C.ar      1     LST    0.0000
     22 C           1.0062   -3.4034    2.7948 C.ar      1     LST    0.0000
     23 C           1.6726   -2.2847    2.4367 C.ar      1     LST    0.0000
     24 C           2.6518   -1.8552    3.2678 C.ar      1     LST    0.0000
     25 N           3.0967   -2.4795    4.2798 N.ar      1     LST    0.0000
     26 N           3.9761   -1.7696    4.8224 N.ar      1     LST    0.0000
     27 N           4.1418   -0.5733    4.2120 N.ar      1     LST    0.0000
     28 N           3.2471   -0.7380    3.2122 N.ar      1     LST    0.0000
     29 C           1.4346    0.4344    0.1222 C.ar      1     LST    0.0000
     30 C           2.1966    1.3802   -0.4505 C.ar      1     LST    0.0000
     31 H           5.8069   -1.4148   -6.3476 H         1     LST    0.0000
     32 H           6.4861   -1.9975   -4.7862 H         1     LST    0.0000
     33 H           4.7785   -1.4280   -4.8710 H         1     LST    0.0000
     34 H           5.5874    0.9155   -5.4134 H         1     LST    0.0000
     35 H           7.2930    0.3484   -5.3316 H         1     LST    0.0000
     36 H           6.9663   -0.2857   -2.9058 H         1     LST    0.0000
     37 H           5.2587    0.2612   -2.9946 H         1     LST    0.0000
     38 H           6.0770    2.6261   -3.5585 H         1     LST    0.0000
     39 H           7.7597    2.0381   -3.4655 H         1     LST    0.0000
     40 H           5.8671    3.5212    2.2675 H         1     LST    0.0000
     41 H           4.3913    2.6846    1.6443 H         1     LST    0.0000
     42 H           6.7189    1.3875    2.6467 H         1     LST    0.0000
     43 H           3.9765    3.3674   -0.7892 H         1     LST    0.0000
     44 H           4.2222    2.3380   -2.2224 H         1     LST    0.0000
     45 H           5.1620   -0.0385   -0.0815 H         1     LST    0.0000
     46 H           3.8326   -1.6903    0.9437 H         1     LST    0.0000
     47 H          -0.3112   -1.4647   -0.1337 H         1     LST    0.0000
     48 H          -1.5300   -3.3477    0.6601 H         1     LST    0.0000
     49 H          -0.6618   -4.6891    2.5064 H         1     LST    0.0000
     50 H           1.3083   -4.0150    3.6618 H         1     LST    0.0000
     51 H           5.0822   -0.4315    3.8497 H         1     LST    0.0000
     52 H           0.3480    0.6205    0.1570 H         1     LST    0.0000
     53 H           1.7126    2.2797   -0.8671 H         1     LST    0.0000
@<TRIPOS>BOND
     1     1     2     1
     2     1    31     1
     3     1    32     1
     4     1    33     1
     5     2     3     1
     6     2    34     1
     7     2    35     1
     8     3     4     1
     9     3    36     1
    10     3    37     1
    11     4     5     1
    12     4    38     1
    13     4    39     1
    14     5     6     2
    15     5    12     1
    16     6     7     1
    17     7     8     1
    18     7     9     2
    19     9    10     1
    20     9    12     1
    21    10    11     1
    22    10    40     1
    23    10    41     1
    24    11    42     1
    25    12    13     1
    26    13    14     1
    27    13    43     1
    28    13    44     1
    29    14    15     1
    30    14    30     2
    31    15    16     2
    32    15    45     1
    33    16    17     1
    34    16    46     1
    35    17    18     1
    36    17    29     2
    37    18    19     1
    38    18    23     2
    39    19    20     2
    40    19    47     1
    41    20    21     1
    42    20    48     1
    43    21    22     2
    44    21    49     1
    45    22    23     1
    46    22    50     1
    47    23    24     1
    48    24    25     1
    49    24    28     2
    50    25    26     2
    51    26    27     1
    52    27    28     1
    53    27    51     1
    54    29    30     1
    55    29    52     1
    56    30    53     1
