@<TRIPOS>MOLECULE
PTX 
177 183 0 0 0
SMALL
USER_CHARGES
#CGenFF output mol2 file
@<TRIPOS>ATOM
1	C1    31.8200     9.5550    -8.5680	C.3	1	PTX1    -0.2730
2	C2    30.2940     9.4870    -8.4290	C.3	1	PTX1    -0.1770
3	C3    29.8450     8.2450    -7.6410	C.3	1	PTX1    -0.1810
4	C4    28.3160     8.1730    -7.5040	C.3	1	PTX1    -0.1790
5	C5    27.8650     6.9270    -6.7230	C.3	1	PTX1    -0.1800
6	C6    26.3340     6.8510    -6.6010	C.3	1	PTX1    -0.1800
7	C7    25.8760     5.5970    -5.8380	C.3	1	PTX1    -0.1800
8	C8    24.3440     5.5150    -5.7440	C.3	1	PTX1    -0.1800
9	C9    23.8730     4.2470    -5.0120	C.3	1	PTX1    -0.1800
10	C10    22.3390     4.1550    -4.9640	C.3	1	PTX1    -0.1800
11	C11    21.8530     2.8690    -4.2750	C.3	1	PTX1    -0.1800
12	C12    20.3190     2.7650    -4.2900	C.3	1	PTX1    -0.1800
13	C13    19.8130     1.4570    -3.6580	C.3	1	PTX1    -0.1800
14	C14    18.2830     1.3400    -3.7530	C.3	1	PTX1    -0.1800
15	C15    17.7570     0.0100    -3.1880	C.3	1	PTX1    -0.1800
16	C16    16.2370    -0.1180    -3.3790	C.3	1	PTX1    -0.1800
17	C17    15.6920    -1.4680    -2.8850	C.3	1	PTX1    -0.1800
18	C18    14.1960    -1.5980    -3.1800	C.3	1	PTX1     0.0360
19	C19    12.3540    -3.0660    -2.7930	C.3	1	PTX1     0.3790
20	C20    11.7110    -2.5280    -4.0750	C.3	1	PTX1    -0.2690
21	C21    12.1080    -4.5780    -2.7740	C.3	1	PTX1    -0.2690
22	O1    13.7470    -2.8610    -2.7570	O.3	1	PTX1    -0.4020
23	H1    32.1300    10.4600    -9.1410	H	1	PTX1     0.0900
24	H2    32.3130     9.6010    -7.5700	H	1	PTX1     0.0900
25	H3    32.2140     8.6630    -9.1060	H	1	PTX1     0.0900
26	H4    29.8330     9.4720    -9.4450	H	1	PTX1     0.0900
27	H5    29.9310    10.4080    -7.9120	H	1	PTX1     0.0900
28	H6    30.3080     8.2650    -6.6260	H	1	PTX1     0.0900
29	H7    30.2140     7.3280    -8.1590	H	1	PTX1     0.0900
30	H8    27.8560     8.1580    -8.5210	H	1	PTX1     0.0900
31	H9    27.9470     9.0890    -6.9840	H	1	PTX1     0.0900
32	H10    28.3180     6.9440    -5.7040	H	1	PTX1     0.0900
33	H11    28.2400     6.0120    -7.2410	H	1	PTX1     0.0900
34	H12    25.8850     6.8450    -7.6220	H	1	PTX1     0.0900
35	H13    25.9580     7.7610    -6.0760	H	1	PTX1     0.0900
36	H14    26.3110     5.6060    -4.8110	H	1	PTX1     0.0900
37	H15    26.2630     4.6880    -6.3570	H	1	PTX1     0.0900
38	H16    23.9140     5.5240    -6.7740	H	1	PTX1     0.0900
39	H17    23.9550     6.4160    -5.2130	H	1	PTX1     0.0900
40	H18    24.2800     4.2420    -3.9730	H	1	PTX1     0.0900
41	H19    24.2800     3.3480    -5.5350	H	1	PTX1     0.0900
42	H20    21.9400     4.1860    -6.0050	H	1	PTX1     0.0900
43	H21    21.9310     5.0420    -4.4240	H	1	PTX1     0.0900
44	H22    22.2200     2.8450    -3.2220	H	1	PTX1     0.0900
45	H23    22.2860     1.9850    -4.8010	H	1	PTX1     0.0900
46	H24    19.9620     2.8220    -5.3450	H	1	PTX1     0.0900
47	H25    19.8820     3.6340    -3.7430	H	1	PTX1     0.0900
48	H26    20.1290     1.4090    -2.5890	H	1	PTX1     0.0900
49	H27    20.2810     0.5910    -4.1850	H	1	PTX1     0.0900
50	H28    17.9800     1.4260    -4.8240	H	1	PTX1     0.0900
51	H29    17.8100     2.1900    -3.2050	H	1	PTX1     0.0900
52	H30    18.0090    -0.0640    -2.1040	H	1	PTX1     0.0900
53	H31    18.2650    -0.8360    -3.7090	H	1	PTX1     0.0900
54	H32    15.9990    -0.0050    -4.4640	H	1	PTX1     0.0900
55	H33    15.7220     0.7110    -2.8380	H	1	PTX1     0.0900
56	H34    15.8740    -1.5650    -1.7890	H	1	PTX1     0.0900
57	H35    16.2390    -2.3000    -3.3900	H	1	PTX1     0.0900
58	H36    14.0480    -1.5020    -4.2790	H	1	PTX1     0.0900
59	H37    13.6390    -0.7940    -2.6540	H	1	PTX1     0.0900
60	H38    10.6430    -2.8400    -4.1350	H	1	PTX1     0.0900
61	H39    12.2170    -2.9120    -4.9890	H	1	PTX1     0.0900
62	H40    11.7000    -1.4160    -4.1170	H	1	PTX1     0.0900
63	H41    12.7380    -5.1240    -2.0370	H	1	PTX1     0.0900
64	H42    11.0420    -4.8310    -2.5830	H	1	PTX1     0.0900
65	H43    12.3760    -5.0290    -3.7570	H	1	PTX1     0.0900
66	N     1.2690    -2.5520     5.1770	N.pl3	1	PTX1    -0.4050
67	C22    11.9160    -2.8280    -0.4060	C.3	1	PTX1     0.1750
68	C23    13.0430    -2.0450     0.2730	C.3	1	PTX1    -0.2120
69	C24    12.7350    -0.5840     0.5440	C.3	1	PTX1     0.0200
70	C25    11.1270     0.4400    -0.1410	C.3	1	PTX1    -0.1060
71	C26    11.3580    -0.3330     1.1590	C.3	1	PTX1     0.3660
72	C27    12.0660     1.6180     2.4740	C.2	1	PTX1     0.8850
73	C28    11.9800     2.0560     3.9250	C.3	1	PTX1    -0.3130
74	C29    10.4630    -1.5650     1.3920	C.3	1	PTX1    -0.0740
75	C30     9.0330    -1.1970     1.8800	C.3	1	PTX1     0.1330
76	C31     7.9510     0.7850     0.9150	C.2	1	PTX1     0.4590
77	C32     7.8560     2.1500     0.8680	C.2	1	PTX1     0.0860
78	C33     7.0250     2.7790     0.0140	C.2	1	PTX1    -0.1100
79	C34     6.9530     4.1200    -0.0150	C.2	1	PTX1    -0.1140
80	C35     7.7120     4.8570     0.8090	C.2	1	PTX1    -0.1150
81	C36     8.5410     4.2440     1.6650	C.2	1	PTX1    -0.1140
82	C37     8.6100     2.9030     1.6930	C.2	1	PTX1    -0.1100
83	C38     8.5780    -1.6620     3.2900	C.3	1	PTX1     0.1860
84	C39     7.0610    -1.4180     3.4180	C.3	1	PTX1    -0.2120
85	C40     6.2400    -2.4170     2.5780	C.3	1	PTX1     0.2720
86	C41     4.5370    -3.8240     3.6290	C.2	1	PTX1     0.8530
87	C42     3.0980    -3.7280     4.1340	C.3	1	PTX1     0.1240
88	C43     2.6910    -2.4150     4.8260	C.3	1	PTX1     0.1180
89	C44     0.5650    -1.8880     6.1450	C.2	1	PTX1     0.3410
90	C45     1.0050    -0.7630     6.7800	C.2	1	PTX1    -0.1370
91	C46     1.7780     0.1550     6.1700	C.2	1	PTX1    -0.0240
92	C47     2.2050     1.2510     6.8170	C.2	1	PTX1    -0.1090
93	C48     1.8530     1.4610     8.0930	C.2	1	PTX1    -0.1150
94	C49     1.0580     0.5740     8.7070	C.2	1	PTX1    -0.1090
95	C50     0.6340    -0.5200     8.0530	C.2	1	PTX1    -0.0240
96	C51     3.5680    -2.2220     6.0510	C.2	1	PTX1    -0.0400
97	C52     3.4470    -3.0220     7.1270	C.2	1	PTX1    -0.1060
98	C53     4.2290    -2.8570     8.2050	C.2	1	PTX1    -0.1150
99	C54     5.1540    -1.8860     8.2230	C.2	1	PTX1    -0.1150
100	C55     5.2890    -1.0820     7.1580	C.2	1	PTX1    -0.1150
101	C56     4.5000    -1.2530     6.0860	C.2	1	PTX1    -0.1060
102	C57     6.9960    -3.6330     2.0440	C.2	1	PTX1    -0.1530
103	C58     6.2350    -4.3430     0.9380	C.3	1	PTX1    -0.2650
104	C59     8.2640    -3.9050     2.4440	C.2	1	PTX1    -0.1130
105	C60     9.2420    -4.8280     1.7140	C.3	1	PTX1     0.4320
106	C61     9.3490    -6.4720    -0.0480	C.2	1	PTX1     0.8340
107	C62     8.4960    -7.0300    -1.1700	C.3	1	PTX1    -0.3110
108	C63    10.5310    -4.0710     1.2980	C.2	1	PTX1     0.3000
109	C64    10.5670    -2.7900     0.4030	C.3	1	PTX1     0.0880
110	C65     9.4100    -2.8680    -0.6220	C.3	1	PTX1    -0.2630
111	C66     8.7900    -3.1530     3.6730	C.3	1	PTX1     0.0160
112	C67     7.9450    -3.6320     4.8980	C.3	1	PTX1    -0.2690
113	C68    10.2000    -3.4910     4.2340	C.3	1	PTX1    -0.2690
114	O2    11.7360    -2.3740    -1.7260	O.3	1	PTX1    -0.4500
115	O3    12.4360     0.1700    -0.6070	O.3	1	PTX1    -0.3430
116	O4    11.4680     0.4030     2.3430	O.3	1	PTX1    -0.4220
117	O5    12.5900     2.2740     1.6050	O.co2	1	PTX1    -0.6170
118	O6     8.8260     0.1910     1.7980	O.3	1	PTX1    -0.3100
119	O7     7.2730     0.0980     0.1760	O.co2	1	PTX1    -0.4960
120	O8     9.2380    -0.8380     4.2140	O.3	1	PTX1    -0.4600
121	O9     4.9640    -2.6250     3.1480	O.3	1	PTX1    -0.4190
122	O10     5.1460    -4.8690     3.6530	O.co2	1	PTX1    -0.6280
123	O11     2.2070    -3.9660     3.0600	O.3	1	PTX1    -0.6620
124	O12    -0.4300    -2.4660     6.5190	O.2	1	PTX1    -0.4580
125	O13     8.6590    -5.5040     0.6140	O.3	1	PTX1    -0.4270
126	O14    10.4760    -6.8250     0.2050	O.co2	1	PTX1    -0.6250
127	O15    11.5760    -4.4890     1.7560	O.2	1	PTX1    -0.5150
128	H44    12.2450    -3.8860    -0.4670	H	1	PTX1     0.0900
129	H45    13.2750    -2.5160     1.2570	H	1	PTX1     0.0900
130	H46    13.9880    -2.1120    -0.3090	H	1	PTX1     0.0900
131	H47    13.5790    -0.0960     1.0810	H	1	PTX1     0.0900
132	H48    10.9400     1.5290    -0.0590	H	1	PTX1     0.0900
133	H49    10.3890    -0.0350    -0.8210	H	1	PTX1     0.0900
134	H50    10.9260     2.0280     4.2850	H	1	PTX1     0.0900
135	H51    12.5970     1.3850     4.5640	H	1	PTX1     0.0900
136	H52    12.3560     3.0960     4.0480	H	1	PTX1     0.0900
137	H53    10.9960    -1.9110     2.3020	H	1	PTX1     0.0900
138	H54     8.3340    -1.6770     1.1830	H	1	PTX1     0.0900
139	H55     6.3780     2.2290    -0.6890	H	1	PTX1     0.1150
140	H56     6.2690     4.6210    -0.7210	H	1	PTX1     0.1150
141	H57     7.6530     5.9580     0.7840	H	1	PTX1     0.1150
142	H58     9.1680     4.8430     2.3470	H	1	PTX1     0.1150
143	H59     9.3070     2.4530     2.4180	H	1	PTX1     0.1150
144	H60     9.1150     0.0800     3.9520	H	1	PTX1     0.2920
145	H61     6.7820    -0.3720     3.1540	H	1	PTX1     0.0900
146	H62     6.7730    -1.4600     4.4900	H	1	PTX1     0.0900
147	H63     6.0240    -1.8540     1.6310	H	1	PTX1     0.0900
148	H64     2.9400    -4.5800     4.8360	H	1	PTX1     0.0900
149	H65     2.2370    -4.8880     2.7940	H	1	PTX1     0.4210
150	H66     2.7980    -1.5990     4.0760	H	1	PTX1     0.0900
151	H67     0.7630    -3.3160     4.7310	H	1	PTX1     0.2740
152	H68     2.0560     0.0660     5.1110	H	1	PTX1     0.1150
153	H69     2.8340     1.9920     6.2940	H	1	PTX1     0.1150
154	H70     2.1990     2.3620     8.6260	H	1	PTX1     0.1150
155	H71     0.7550     0.7440     9.7540	H	1	PTX1     0.1150
156	H72    -0.0090    -1.2190     8.6140	H	1	PTX1     0.1150
157	H73     2.6960    -3.8280     7.1350	H	1	PTX1     0.1150
158	H74     4.1120    -3.5220     9.0770	H	1	PTX1     0.1150
159	H75     5.7980    -1.7490     9.1060	H	1	PTX1     0.1150
160	H76     6.0470    -0.2810     7.1640	H	1	PTX1     0.1150
161	H77     4.6260    -0.5780     5.2230	H	1	PTX1     0.1150
162	H78     6.5520    -4.0230    -0.0760	H	1	PTX1     0.0900
163	H79     6.2970    -5.4490     1.0320	H	1	PTX1     0.0900
164	H80     5.1450    -4.1280     0.9850	H	1	PTX1     0.0900
165	H81     9.5050    -5.6180     2.4580	H	1	PTX1     0.0900
166	H82     7.5640    -7.4820    -0.7620	H	1	PTX1     0.0900
167	H83     8.2250    -6.2210    -1.8860	H	1	PTX1     0.0900
168	H84     9.0480    -7.8170    -1.7310	H	1	PTX1     0.0900
169	H85     9.2920    -1.9240    -1.1980	H	1	PTX1     0.0900
170	H86     9.5520    -3.7000    -1.3450	H	1	PTX1     0.0900
171	H87     8.4150    -3.0640    -0.1910	H	1	PTX1     0.0900
172	H88     8.1750    -3.0490     5.8190	H	1	PTX1     0.0900
173	H89     6.8480    -3.5750     4.7860	H	1	PTX1     0.0900
174	H90     8.1280    -4.7070     5.1240	H	1	PTX1     0.0900
175	H91    10.3790    -2.9870     5.2100	H	1	PTX1     0.0900
176	H92    10.3280    -4.5820     4.4170	H	1	PTX1     0.0900
177	H93    11.0760    -3.1840     3.6470	H	1	PTX1     0.0900
@<TRIPOS>BOND
1	1	2	1
2	1	23	1
3	1	24	1
4	1	25	1
5	2	3	1
6	2	26	1
7	2	27	1
8	3	4	1
9	3	28	1
10	3	29	1
11	4	5	1
12	4	30	1
13	4	31	1
14	5	6	1
15	5	32	1
16	5	33	1
17	6	7	1
18	6	34	1
19	6	35	1
20	7	8	1
21	7	36	1
22	7	37	1
23	8	9	1
24	8	38	1
25	8	39	1
26	9	10	1
27	9	40	1
28	9	41	1
29	10	11	1
30	10	42	1
31	10	43	1
32	11	12	1
33	11	44	1
34	11	45	1
35	12	13	1
36	12	46	1
37	12	47	1
38	13	14	1
39	13	48	1
40	13	49	1
41	14	15	1
42	14	50	1
43	14	51	1
44	15	16	1
45	15	52	1
46	15	53	1
47	16	17	1
48	16	54	1
49	16	55	1
50	17	18	1
51	17	56	1
52	17	57	1
53	18	22	1
54	18	58	1
55	18	59	1
56	19	20	1
57	19	21	1
58	19	114	1
59	20	60	1
60	20	61	1
61	20	62	1
62	21	63	1
63	21	64	1
64	21	65	1
65	19	22	1
66	66	89	1
67	66	151	1
68	67	68	1
69	67	109	1
70	67	128	1
71	68	69	1
72	68	129	1
73	68	130	1
74	69	71	1
75	69	115	1
76	69	131	1
77	70	71	1
78	70	132	1
79	70	133	1
80	71	74	1
81	71	116	1
82	72	73	1
83	72	117	2
84	73	134	1
85	73	135	1
86	73	136	1
87	74	75	1
88	74	109	1
89	74	137	1
90	75	83	1
91	75	118	1
92	75	138	1
93	76	77	1
94	76	119	2
95	77	78	1
96	77	82	2
97	78	79	2
98	78	139	1
99	79	80	1
100	79	140	1
101	80	81	2
102	80	141	1
103	81	82	1
104	81	142	1
105	82	143	1
106	83	84	1
107	83	111	1
108	83	120	1
109	84	85	1
110	84	145	1
111	84	146	1
112	85	102	1
113	85	121	1
114	85	147	1
115	86	87	1
116	86	122	2
117	87	88	1
118	87	123	1
119	87	148	1
120	66	88	1
121	88	96	1
122	88	150	1
123	89	90	1
124	89	124	2
125	90	91	1
126	90	95	2
127	91	92	2
128	91	152	1
129	92	93	1
130	92	153	1
131	93	94	2
132	93	154	1
133	94	95	1
134	94	155	1
135	95	156	1
136	96	97	1
137	96	101	2
138	97	98	2
139	97	157	1
140	98	99	1
141	98	158	1
142	99	100	2
143	99	159	1
144	100	101	1
145	100	160	1
146	101	161	1
147	102	103	1
148	102	104	2
149	103	162	1
150	103	163	1
151	103	164	1
152	104	105	1
153	104	111	1
154	105	108	1
155	105	125	1
156	105	165	1
157	106	107	1
158	106	126	2
159	107	166	1
160	107	167	1
161	107	168	1
162	108	109	1
163	108	127	2
164	109	110	1
165	110	169	1
166	110	170	1
167	110	171	1
168	111	112	1
169	111	113	1
170	112	172	1
171	112	173	1
172	112	174	1
173	113	175	1
174	113	176	1
175	113	177	1
176	67	114	1
177	70	115	1
178	72	116	1
179	76	118	1
180	120	144	1
181	86	121	1
182	123	149	1
183	106	125	1
