# created with PyMOL 2.5.4
@<TRIPOS>MOLECULE
PTX
118 118 2               
SMALL
USER_CHARGES
@<TRIPOS>ATOM
1	   C	35.776	-0.472	1.853	C.3	1	PTL1	0.000	
2	   C	34.495	-0.382	1.012	C.3	1	PTL1	0.000	
3	   C	33.304	0.129	1.838	C.3	1	PTL1	0.000	
4	   C	32.020	0.224	0.998	C.3	1	PTL1	0.000	
5	   C	30.828	0.730	1.827	C.3	1	PTL1	0.000	
6	   C	29.544	0.832	0.987	C.3	1	PTL1	0.000	
7	   C	28.351	1.332	1.819	C.3	1	PTL1	0.000	
8	   C	27.068	1.443	0.979	C.3	1	PTL1	0.000	
9	   C	25.876	1.933	1.816	C.3	1	PTL1	0.000	
10	   C	24.593	2.056	0.978	C.3	1	PTL1	0.000	
11	   C	23.400	2.533	1.823	C.3	1	PTL1	0.000	
12	   C	22.117	2.671	0.987	C.3	1	PTL1	0.000	
13	   C	20.925	3.133	1.841	C.3	1	PTL1	0.000	
14	   C	19.642	3.287	1.008	C.3	1	PTL1	0.000	
15	   C	18.451	3.731	1.873	C.3	1	PTL1	0.000	
16	   C	17.167	3.905	1.045	C.3	1	PTL1	0.000	
17	   C	15.976	4.330	1.921	C.3	1	PTL1	0.000	
18	   C	14.699	4.521	1.101	C.3	1	PTL1	0.000	
19	   C	12.370	4.973	1.409	C.3	1	PTL1	0.000	
20	   C	11.478	5.517	2.525	C.3	1	PTL1	0.000	
21	   C	12.327	5.901	0.199	C.3	1	PTL1	0.000	
22	   O	13.663	4.898	1.977	O.3	1	PTL1	0.000	
23	   H	36.630	-0.844	1.242	 H	1	PTL1	0.000	
24	   H	36.060	0.525	2.261	 H	1	PTL1	0.000	
25	   H	35.644	-1.170	2.712	 H	1	PTL1	0.000	
26	   H	34.258	-1.390	0.596	 H	1	PTL1	0.000	
27	   H	34.672	0.302	0.148	 H	1	PTL1	0.000	
28	   H	33.548	1.134	2.256	 H	1	PTL1	0.000	
29	   H	33.132	-0.558	2.701	 H	1	PTL1	0.000	
30	   H	31.777	-0.781	0.578	 H	1	PTL1	0.000	
31	   H	32.191	0.913	0.138	 H	1	PTL1	0.000	
32	   H	31.072	1.733	2.251	 H	1	PTL1	0.000	
33	   H	30.654	0.038	2.685	 H	1	PTL1	0.000	
34	   H	29.302	-0.170	0.559	 H	1	PTL1	0.000	
35	   H	29.716	1.528	0.132	 H	1	PTL1	0.000	
36	   H	28.596	2.331	2.252	 H	1	PTL1	0.000	
37	   H	28.177	0.632	2.670	 H	1	PTL1	0.000	
38	   H	26.826	0.446	0.539	 H	1	PTL1	0.000	
39	   H	27.241	2.148	0.132	 H	1	PTL1	0.000	
40	   H	26.121	2.925	2.263	 H	1	PTL1	0.000	
41	   H	25.700	1.222	2.659	 H	1	PTL1	0.000	
42	   H	24.351	1.066	0.524	 H	1	PTL1	0.000	
43	   H	24.765	2.774	0.142	 H	1	PTL1	0.000	
44	   H	23.646	3.519	2.286	 H	1	PTL1	0.000	
45	   H	23.224	1.809	2.654	 H	1	PTL1	0.000	
46	   H	21.875	1.689	0.515	 H	1	PTL1	0.000	
47	   H	22.289	3.404	0.163	 H	1	PTL1	0.000	
48	   H	21.172	4.109	2.322	 H	1	PTL1	0.000	
49	   H	20.749	2.393	2.658	 H	1	PTL1	0.000	
50	   H	19.399	2.315	0.517	 H	1	PTL1	0.000	
51	   H	19.813	4.037	0.200	 H	1	PTL1	0.000	
52	   H	18.698	4.696	2.375	 H	1	PTL1	0.000	
53	   H	18.274	2.974	2.674	 H	1	PTL1	0.000	
54	   H	16.923	2.944	0.532	 H	1	PTL1	0.000	
55	   H	17.338	4.673	0.254	 H	1	PTL1	0.000	
56	   H	16.224	5.283	2.446	 H	1	PTL1	0.000	
57	   H	15.800	3.554	2.704	 H	1	PTL1	0.000	
58	   H	14.441	3.569	0.585	 H	1	PTL1	0.000	
59	   H	14.869	5.324	0.350	 H	1	PTL1	0.000	
60	   H	10.431	5.699	2.195	 H	1	PTL1	0.000	
61	   H	11.861	6.499	2.887	 H	1	PTL1	0.000	
62	   H	11.457	4.831	3.403	 H	1	PTL1	0.000	
63	   H	12.819	6.874	0.423	 H	1	PTL1	0.000	
64	   H	12.819	5.457	-0.696	 H	1	PTL1	0.000	
65	   H	11.282	6.134	-0.103	 H	1	PTL1	0.000	
66	   C	10.679	3.363	0.899	C.3	2	PTX1	0.000	
67	   C	10.536	1.987	0.247	C.3	2	PTX1	0.000	
68	   C	9.063	1.577	0.091	C.3	2	PTX1	0.000	
69	   C	8.913	0.221	-0.617	C.3	2	PTX1	0.000	
70	   C	7.441	-0.207	-0.733	C.3	2	PTX1	0.000	
71	   C	7.285	-1.535	-1.491	C.3	2	PTX1	0.000	
72	   C	5.817	-1.983	-1.571	C.3	2	PTX1	0.000	
73	   C	5.655	-3.282	-2.377	C.3	2	PTX1	0.000	
74	   C	4.191	-3.751	-2.423	C.3	2	PTX1	0.000	
75	   C	4.021	-5.022	-3.272	C.3	2	PTX1	0.000	
76	   C	2.565	-5.476	-3.300	C.2	2	PTX1	0.000	
77	   C	1.723	-5.076	-4.271	C.2	2	PTX1	0.000	
78	   C	2.130	-4.118	-5.380	C.3	2	PTX1	0.000	
79	   C	0.437	-5.519	-4.290	C.2	2	PTX1	0.000	
80	   C	0.003	-6.354	-3.298	C.2	2	PTX1	0.000	
81	   C	-1.826	-7.909	-2.859	C.3	2	PTX1	0.000	
82	   C	0.840	-6.752	-2.309	C.2	2	PTX1	0.000	
83	   C	0.825	-7.526	0.014	C.3	2	PTX1	0.000	
84	   C	2.132	-6.303	-2.307	C.2	2	PTX1	0.000	
85	   O	12.046	3.647	1.051	O.3	2	PTX1	0.000	
86	   O	-0.312	-5.164	-5.182	O.2	2	PTX1	0.000	
87	   O	-1.314	-6.746	-3.465	O.3	2	PTX1	0.000	
88	   O	0.325	-7.542	-1.302	O.3	2	PTX1	0.000	
89	   O	2.916	-6.634	-1.439	O.2	2	PTX1	0.000	
90	   H	10.188	3.343	1.898	 H	2	PTX1	0.000	
91	   H	10.198	4.130	0.251	 H	2	PTX1	0.000	
92	   H	11.026	2.003	-0.757	 H	2	PTX1	0.000	
93	   H	11.069	1.225	0.865	 H	2	PTX1	0.000	
94	   H	8.587	1.525	1.099	 H	2	PTX1	0.000	
95	   H	8.521	2.359	-0.493	 H	2	PTX1	0.000	
96	   H	9.361	0.287	-1.637	 H	2	PTX1	0.000	
97	   H	9.480	-0.558	-0.053	 H	2	PTX1	0.000	
98	   H	7.005	-0.310	0.289	 H	2	PTX1	0.000	
99	   H	6.864	0.588	-1.263	 H	2	PTX1	0.000	
100	   H	7.694	-1.419	-2.523	 H	2	PTX1	0.000	
101	   H	7.884	-2.327	-0.981	 H	2	PTX1	0.000	
102	   H	5.421	-2.135	-0.539	 H	2	PTX1	0.000	
103	   H	5.208	-1.177	-2.047	 H	2	PTX1	0.000	
104	   H	6.023	-3.118	-3.418	 H	2	PTX1	0.000	
105	   H	6.284	-4.083	-1.922	 H	2	PTX1	0.000	
106	   H	3.835	-3.945	-1.384	 H	2	PTX1	0.000	
107	   H	3.555	-2.937	-2.844	 H	2	PTX1	0.000	
108	   H	4.418	-4.861	-4.297	 H	2	PTX1	0.000	
109	   H	4.694	-5.827	-2.899	 H	2	PTX1	0.000	
110	   H	3.091	-3.588	-5.224	 H	2	PTX1	0.000	
111	   H	2.198	-4.658	-6.352	 H	2	PTX1	0.000	
112	   H	1.394	-3.288	-5.482	 H	2	PTX1	0.000	
113	   H	-2.790	-8.149	-3.360	 H	2	PTX1	0.000	
114	   H	-1.137	-8.769	-3.015	 H	2	PTX1	0.000	
115	   H	-2.060	-7.728	-1.788	 H	2	PTX1	0.000	
116	   H	0.035	-7.951	0.674	 H	2	PTX1	0.000	
117	   H	1.708	-8.195	0.112	 H	2	PTX1	0.000	
118	   H	1.023	-6.484	0.350	 H	2	PTX1	0.000	
@<TRIPOS>BOND
1 1 2 1
2 1 23 1
3 1 24 1
4 1 25 1
5 2 3 1
6 2 26 1
7 2 27 1
8 3 4 1
9 3 28 1
10 3 29 1
11 4 5 1
12 4 30 1
13 4 31 1
14 5 6 1
15 5 32 1
16 5 33 1
17 6 7 1
18 6 34 1
19 6 35 1
20 7 8 1
21 7 36 1
22 7 37 1
23 8 9 1
24 8 38 1
25 8 39 1
26 9 10 1
27 9 40 1
28 9 41 1
29 10 11 1
30 10 42 1
31 10 43 1
32 11 12 1
33 11 44 1
34 11 45 1
35 12 13 1
36 12 46 1
37 12 47 1
38 13 14 1
39 13 48 1
40 13 49 1
41 14 15 1
42 14 50 1
43 14 51 1
44 15 16 1
45 15 52 1
46 15 53 1
47 16 17 1
48 16 54 1
49 16 55 1
50 17 18 1
51 17 56 1
52 17 57 1
53 18 22 1
54 18 58 1
55 18 59 1
56 19 20 1
57 19 21 1
58 19 85 1
59 20 60 1
60 20 61 1
61 20 62 1
62 21 63 1
63 21 64 1
64 21 65 1
65 19 22 1
66 66 67 1
67 66 90 1
68 66 91 1
69 67 68 1
70 67 92 1
71 67 93 1
72 68 69 1
73 68 94 1
74 68 95 1
75 69 70 1
76 69 96 1
77 69 97 1
78 70 71 1
79 70 98 1
80 70 99 1
81 71 72 1
82 71 100 1
83 71 101 1
84 72 73 1
85 72 102 1
86 72 103 1
87 73 74 1
88 73 104 1
89 73 105 1
90 74 75 1
91 74 106 1
92 74 107 1
93 75 76 1
94 75 108 1
95 75 109 1
96 76 77 2
97 76 84 1
98 77 78 1
99 77 79 1
100 78 110 1
101 78 111 1
102 78 112 1
103 79 80 1
104 79 86 2
105 80 82 2
106 80 87 1
107 81 113 1
108 81 114 1
109 81 115 1
110 82 84 1
111 82 88 1
112 83 116 1
113 83 117 1
114 83 118 1
115 84 89 2
116 66 85 1
117 81 87 1
118 83 88 1
@<TRIPOS>SUBSTRUCTURE
1	PTL1	1	GROUP	1 ****	PTL
2	PTX1	66	GROUP	1 ****	PTX
