@<TRIPOS>MOLECULE
PTX 
153 159 0 0 0
SMALL
USER_CHARGES
#CGenFF output mol2 file
@<TRIPOS>ATOM
1	C1    -0.4100     7.6990     8.4510	C.3	1	PTX1    -0.2730
2	C2     0.7640     7.2540     7.5700	C.3	1	PTX1    -0.1770
3	C3     0.2840     6.5340     6.3000	C.3	1	PTX1    -0.1810
4	C4     1.4580     6.0820     5.4150	C.3	1	PTX1    -0.1790
5	C5     0.9770     5.3560     4.1490	C.3	1	PTX1    -0.1800
6	C6     2.1500     4.8900     3.2700	C.3	1	PTX1    -0.1800
7	C7     1.6660     4.1480     2.0140	C.3	1	PTX1    -0.1800
8	C8     2.8380     3.6580     1.1470	C.3	1	PTX1    -0.1800
9	C9     2.3510     2.8860    -0.0900	C.3	1	PTX1    -0.1800
10	C10     3.5160     2.3540    -0.9260	C.3	1	PTX1     0.0360
11	C11     3.9050     0.7700    -2.6770	C.3	1	PTX1     0.3910
12	C12     3.1480     0.2160    -3.8850	C.3	1	PTX1    -0.2690
13	C13     5.1450     1.5260    -3.1390	C.3	1	PTX1    -0.2690
14	O1     2.9920     1.6160    -2.0040	O.3	1	PTX1    -0.4020
15	H1    -0.0480     8.2200     9.3680	H	1	PTX1     0.0900
16	H2    -1.0800     8.4020     7.9050	H	1	PTX1     0.0900
17	H3    -1.0210     6.8260     8.7780	H	1	PTX1     0.0900
18	H4     1.4270     6.5750     8.1570	H	1	PTX1     0.0900
19	H5     1.3700     8.1480     7.2860	H	1	PTX1     0.0900
20	H6    -0.3780     7.2160     5.7160	H	1	PTX1     0.0900
21	H7    -0.3250     5.6440     6.5890	H	1	PTX1     0.0900
22	H8     2.1210     5.4020     6.0020	H	1	PTX1     0.0900
23	H9     2.0660     6.9710     5.1240	H	1	PTX1     0.0900
24	H10     0.3200     6.0370     3.5580	H	1	PTX1     0.0900
25	H11     0.3630     4.4710     4.4430	H	1	PTX1     0.0900
26	H12     2.8100     4.2160     3.8660	H	1	PTX1     0.0900
27	H13     2.7610     5.7740     2.9670	H	1	PTX1     0.0900
28	H14     1.0160     4.8250     1.4090	H	1	PTX1     0.0900
29	H15     1.0440     3.2740     2.3200	H	1	PTX1     0.0900
30	H16     3.4930     2.9940     1.7600	H	1	PTX1     0.0900
31	H17     3.4540     4.5290     0.8230	H	1	PTX1     0.0900
32	H18     1.7120     3.5500    -0.7200	H	1	PTX1     0.0900
33	H19     1.7170     2.0280     0.2400	H	1	PTX1     0.0900
34	H20     4.1570     1.7120    -0.2820	H	1	PTX1     0.0900
35	H21     4.1140     3.2090    -1.3160	H	1	PTX1     0.0900
36	H22     3.7760    -0.4480    -4.5190	H	1	PTX1     0.0900
37	H23     2.7910     1.0420    -4.5420	H	1	PTX1     0.0900
38	H24     2.2530    -0.3690    -3.5700	H	1	PTX1     0.0900
39	H25     4.8530     2.4020    -3.7620	H	1	PTX1     0.0900
40	H26     5.7660     1.9180    -2.3060	H	1	PTX1     0.0900
41	H27     5.8070     0.8980    -3.7740	H	1	PTX1     0.0900
42	N     5.7540    -3.5660    -1.8310	N.pl3	1	PTX1    -0.4040
43	C14     5.1890    -1.1760    -2.0290	C.3	1	PTX1     0.1830
44	C15     6.5480    -0.6870    -1.5050	C.2	1	PTX1     0.8500
45	C16     8.8930    -1.0620    -1.8860	C.3	1	PTX1     0.2720
46	C17     9.3060    -0.9580    -0.4050	C.3	1	PTX1    -0.2120
47	C18    10.7480    -1.4440    -0.1730	C.3	1	PTX1     0.1860
48	C19    11.7160    -0.4000    -0.7930	C.3	1	PTX1     0.1330
49	C20    11.0320     1.9540    -0.6620	C.2	1	PTX1     0.4590
50	C21    10.8820     3.0790     0.1020	C.2	1	PTX1     0.0860
51	C22    10.3640     4.2190    -0.3990	C.2	1	PTX1    -0.1100
52	C23    10.2270     5.3100     0.3710	C.2	1	PTX1    -0.1140
53	C24    10.6080     5.2840     1.6560	C.2	1	PTX1    -0.1150
54	C25    11.1250     4.1570     2.1670	C.2	1	PTX1    -0.1140
55	C26    11.2590     3.0670     1.3960	C.2	1	PTX1    -0.1100
56	C27    13.2150    -0.7770    -0.8960	C.3	1	PTX1    -0.0740
57	C28    13.7120    -1.2200    -2.3210	C.3	1	PTX1     0.0810
58	C29    13.0990    -0.4360    -3.5050	C.3	1	PTX1    -0.2630
59	C30    13.3550    -2.7320    -2.4900	C.2	1	PTX1     0.2970
60	C31    11.9920    -3.2640    -3.0120	C.3	1	PTX1     0.4320
61	C32    12.6310    -3.8750    -5.2550	C.2	1	PTX1     0.8340
62	C33    12.3810    -3.4510    -6.6890	C.3	1	PTX1    -0.3110
63	C34    10.8140    -2.6750    -2.2390	C.2	1	PTX1    -0.1130
64	C35     9.8030    -1.9350    -2.7620	C.2	1	PTX1    -0.1530
65	C36     9.5110    -1.7630    -4.2400	C.3	1	PTX1    -0.2650
66	C37    10.8000    -2.8930    -0.7260	C.3	1	PTX1     0.0160
67	C38     9.5270    -3.7510    -0.4380	C.3	1	PTX1    -0.2690
68	C39    11.8640    -3.8190    -0.0740	C.3	1	PTX1    -0.2690
69	C40    15.2570    -1.0770    -2.4560	C.3	1	PTX1     0.1660
70	C41    16.0280    -1.2000    -1.1460	C.3	1	PTX1    -0.2010
71	C42    15.6350    -0.1400    -0.1320	C.3	1	PTX1     0.0150
72	C43    14.4820     1.4840    -0.5090	C.3	1	PTX1    -0.1060
73	C44    14.1270     0.0850     0.0020	C.3	1	PTX1     0.3660
74	C45    14.2160     0.6850     2.3820	C.2	1	PTX1     0.8850
75	C46    13.4760     0.2850     3.6450	C.3	1	PTX1    -0.3130
76	C47     4.7920    -2.5370    -1.4110	C.3	1	PTX1     0.1270
77	C48     5.9060    -4.8460    -1.3680	C.2	1	PTX1     0.3410
78	C49     5.1020    -5.4680    -0.4540	C.2	1	PTX1    -0.1370
79	C50     5.6240    -6.4160     0.3510	C.2	1	PTX1    -0.0240
80	C51     4.8810    -7.0470     1.2740	C.2	1	PTX1    -0.1090
81	C52     3.5810    -6.7520     1.4080	C.2	1	PTX1    -0.1150
82	C53     3.0350    -5.8310     0.6020	C.2	1	PTX1    -0.1090
83	C54     3.7880    -5.2060    -0.3170	C.2	1	PTX1    -0.0240
84	C55     4.7060    -2.3960     0.1000	C.2	1	PTX1    -0.0400
85	C56     5.7730    -2.5910     0.8960	C.2	1	PTX1    -0.1060
86	C57     5.6840    -2.4540     2.2270	C.2	1	PTX1    -0.1150
87	C58     4.5150    -2.1140     2.7900	C.2	1	PTX1    -0.1150
88	C59     3.4420    -1.9100     2.0120	C.2	1	PTX1    -0.1150
89	C60     3.5420    -2.0500     0.6810	C.2	1	PTX1    -0.1060
90	O2     4.1380    -0.2730    -1.7560	O.3	1	PTX1    -0.5060
91	O3     6.7060     0.2340    -0.7350	O.co2	1	PTX1    -0.6230
92	O4     7.5430    -1.4220    -2.0730	O.3	1	PTX1    -0.4320
93	O5    10.9940    -1.4530     1.2070	O.3	1	PTX1    -0.4600
94	O6    11.5650     0.8130    -0.1010	O.3	1	PTX1    -0.3100
95	O7    10.6940     1.9570    -1.8310	O.co2	1	PTX1    -0.4960
96	O8    14.1740    -3.5630    -2.1580	O.2	1	PTX1    -0.5150
97	O9    11.9040    -3.0880    -4.4150	O.3	1	PTX1    -0.4270
98	O10    13.3700    -4.7710    -4.9180	O.co2	1	PTX1    -0.6250
99	O11    15.6060     0.1560    -3.0490	O.3	1	PTX1    -0.6420
100	O12    15.8610     1.1710    -0.5970	O.3	1	PTX1    -0.3430
101	O13    13.7070    -0.0140     1.3310	O.3	1	PTX1    -0.4220
102	O14    15.1100     1.4990     2.3540	O.co2	1	PTX1    -0.6170
103	O15     6.9450    -5.3560    -1.7200	O.2	1	PTX1    -0.4580
104	H28     5.2700    -1.3180    -3.1310	H	1	PTX1     0.0900
105	H29     9.0030    -0.0370    -2.3200	H	1	PTX1     0.0900
106	H30     9.1930     0.0840    -0.0320	H	1	PTX1     0.0900
107	H31     8.6110    -1.5240     0.2530	H	1	PTX1     0.0900
108	H32    10.9200    -0.5530     1.5390	H	1	PTX1     0.2920
109	H33    11.3710    -0.2410    -1.8250	H	1	PTX1     0.0900
110	H34    10.0340     4.3030    -1.4470	H	1	PTX1     0.1150
111	H35     9.8020     6.2360    -0.0530	H	1	PTX1     0.1150
112	H36    10.4970     6.1810     2.2880	H	1	PTX1     0.1150
113	H37    11.4400     4.1280     3.2240	H	1	PTX1     0.1150
114	H38    11.6890     2.1690     1.8680	H	1	PTX1     0.1150
115	H39    13.3230    -1.6990    -0.2880	H	1	PTX1     0.0900
116	H40    13.1650     0.6640    -3.3610	H	1	PTX1     0.0900
117	H41    13.6030    -0.6930    -4.4640	H	1	PTX1     0.0900
118	H42    12.0280    -0.6370    -3.6870	H	1	PTX1     0.0900
119	H43    11.9260    -4.3620    -2.8210	H	1	PTX1     0.0900
120	H44    12.6800    -2.3880    -6.8360	H	1	PTX1     0.0900
121	H45    12.9710    -4.0780    -7.3950	H	1	PTX1     0.0900
122	H46    11.3020    -3.5640    -6.9440	H	1	PTX1     0.0900
123	H47    10.2030    -1.0440    -4.7280	H	1	PTX1     0.0900
124	H48     9.5150    -2.7370    -4.7750	H	1	PTX1     0.0900
125	H49     8.4870    -1.3700    -4.4190	H	1	PTX1     0.0900
126	H50     9.3110    -3.8240     0.6520	H	1	PTX1     0.0900
127	H51     8.6000    -3.4020    -0.9290	H	1	PTX1     0.0900
128	H52     9.6350    -4.7900    -0.8250	H	1	PTX1     0.0900
129	H53    11.6520    -3.9660     1.0090	H	1	PTX1     0.0900
130	H54    11.8780    -4.8340    -0.5300	H	1	PTX1     0.0900
131	H55    12.9150    -3.4950    -0.0910	H	1	PTX1     0.0900
132	H56    15.6470    -1.8360    -3.1780	H	1	PTX1     0.0900
133	H57    16.3940     0.5180    -2.6380	H	1	PTX1     0.4000
134	H58    15.8560    -2.2000    -0.6870	H	1	PTX1     0.0900
135	H59    17.1250    -1.1280    -1.3420	H	1	PTX1     0.0900
136	H60    16.1760    -0.2860     0.8290	H	1	PTX1     0.0900
137	H61    14.3030     2.3330     0.1810	H	1	PTX1     0.0900
138	H62    14.0770     1.7110    -1.5170	H	1	PTX1     0.0900
139	H63    12.3780     0.4240     3.5200	H	1	PTX1     0.0900
140	H64    13.6790    -0.7830     3.8870	H	1	PTX1     0.0900
141	H65    13.8030     0.9060     4.5100	H	1	PTX1     0.0900
142	H66     3.8060    -2.7880    -1.8670	H	1	PTX1     0.0900
143	H67     6.4910    -3.2850    -2.4780	H	1	PTX1     0.2740
144	H68     6.6900    -6.6970     0.3050	H	1	PTX1     0.1150
145	H69     5.3380    -7.8080     1.9280	H	1	PTX1     0.1150
146	H70     2.9650    -7.2690     2.1630	H	1	PTX1     0.1150
147	H71     1.9600    -5.6000     0.6870	H	1	PTX1     0.1150
148	H72     3.2570    -4.5050    -0.9730	H	1	PTX1     0.1150
149	H73     6.7450    -2.8690     0.4630	H	1	PTX1     0.1150
150	H74     6.5730    -2.6210     2.8590	H	1	PTX1     0.1150
151	H75     4.4380    -2.0000     3.8840	H	1	PTX1     0.1150
152	H76     2.4780    -1.6270     2.4660	H	1	PTX1     0.1150
153	H77     2.6480    -1.8750     0.0600	H	1	PTX1     0.1150
@<TRIPOS>BOND
1	1	2	1
2	1	15	1
3	1	16	1
4	1	17	1
5	2	3	1
6	2	18	1
7	2	19	1
8	3	4	1
9	3	20	1
10	3	21	1
11	4	5	1
12	4	22	1
13	4	23	1
14	5	6	1
15	5	24	1
16	5	25	1
17	6	7	1
18	6	26	1
19	6	27	1
20	7	8	1
21	7	28	1
22	7	29	1
23	8	9	1
24	8	30	1
25	8	31	1
26	9	10	1
27	9	32	1
28	9	33	1
29	10	14	1
30	10	34	1
31	10	35	1
32	11	12	1
33	11	13	1
34	11	90	1
35	12	36	1
36	12	37	1
37	12	38	1
38	13	39	1
39	13	40	1
40	13	41	1
41	11	14	1
42	42	77	1
43	42	143	1
44	43	44	1
45	43	76	1
46	43	104	1
47	44	91	2
48	44	92	1
49	45	46	1
50	45	64	1
51	45	105	1
52	46	47	1
53	46	106	1
54	46	107	1
55	47	48	1
56	47	66	1
57	47	93	1
58	48	56	1
59	48	94	1
60	48	109	1
61	49	50	1
62	49	95	2
63	50	51	1
64	50	55	2
65	51	52	2
66	51	110	1
67	52	53	1
68	52	111	1
69	53	54	2
70	53	112	1
71	54	55	1
72	54	113	1
73	55	114	1
74	56	57	1
75	56	73	1
76	56	115	1
77	57	58	1
78	57	59	1
79	57	69	1
80	58	116	1
81	58	117	1
82	58	118	1
83	59	60	1
84	59	96	2
85	60	63	1
86	60	97	1
87	60	119	1
88	61	62	1
89	61	98	2
90	62	120	1
91	62	121	1
92	62	122	1
93	63	64	2
94	63	66	1
95	64	65	1
96	65	123	1
97	65	124	1
98	65	125	1
99	66	67	1
100	66	68	1
101	67	126	1
102	67	127	1
103	67	128	1
104	68	129	1
105	68	130	1
106	68	131	1
107	69	70	1
108	69	99	1
109	69	132	1
110	70	71	1
111	70	134	1
112	70	135	1
113	71	73	1
114	71	100	1
115	71	136	1
116	72	73	1
117	72	137	1
118	72	138	1
119	73	101	1
120	74	75	1
121	74	102	2
122	75	139	1
123	75	140	1
124	75	141	1
125	42	76	1
126	76	84	1
127	76	142	1
128	77	78	1
129	77	103	2
130	78	79	1
131	78	83	2
132	79	80	2
133	79	144	1
134	80	81	1
135	80	145	1
136	81	82	2
137	81	146	1
138	82	83	1
139	82	147	1
140	83	148	1
141	84	85	1
142	84	89	2
143	85	86	2
144	85	149	1
145	86	87	1
146	86	150	1
147	87	88	2
148	87	151	1
149	88	89	1
150	88	152	1
151	89	153	1
152	43	90	1
153	45	92	1
154	93	108	1
155	49	94	1
156	61	97	1
157	99	133	1
158	72	100	1
159	74	101	1
