@<TRIPOS>MOLECULE
PTX
126 132 1 0 0
SMALL
USER_CHARGES


@<TRIPOS>ATOM
      1 C           6.5339   -1.9464   -1.1905 C.3       1     PTL    0.0000
      2 O           6.7567   -0.6449   -0.6878 O.3       1     PTL    0.0000
      3 C           5.6038    0.0897   -0.3126 C.3       1     PTL    0.0000
      4 C           6.1187    1.4358    0.2013 C.3       1     PTL    0.0000
      5 C           4.6169    0.2555   -1.4628 C.3       1     PTL    0.0000
      6 I           5.3966    1.1524   -3.2615 I         1     PTL    0.0000
      7 O           5.0774   -0.6705    0.7559 O.3       1     PTX    0.0000
      8 C           3.9311   -0.1887    1.4247 C.3       1     PTX    0.0000
      9 C           2.6180   -0.5118    0.6955 C.2       1     PTX    0.0000
     10 O           2.3987   -1.5600    0.1320 O.2       1     PTX    0.0000
     11 O           1.7748    0.5525    0.8042 O.3       1     PTX    0.0000
     12 C           0.4848    0.5923    0.2336 C.3       1     PTX    0.0000
     13 C           0.4183    1.5988   -0.9313 C.3       1     PTX    0.0000
     14 C          -0.6978    1.2396   -1.9364 C.3       1     PTX    0.0000
     15 O          -0.5863    2.0910   -3.0455 O.3       1     PTX    0.0000
     16 C          -2.0666    1.5505   -1.2745 C.3       1     PTX    0.0000
     17 O          -2.1552    2.9418   -1.0932 O.3       1     PTX    0.0000
     18 C          -2.1978    3.5559    0.1393 C.2       1     PTX    0.0000
     19 O          -2.0907    2.8920    1.1519 O.2       1     PTX    0.0000
     20 C          -2.3688    4.9117    0.2173 C.ar      1     PTX    0.0000
     21 C          -2.4275    5.5573    1.3991 C.ar      1     PTX    0.0000
     22 C          -2.5980    6.8884    1.4498 C.ar      1     PTX    0.0000
     23 C          -2.7129    7.5996    0.3190 C.ar      1     PTX    0.0000
     24 C          -2.6545    6.9706   -0.8634 C.ar      1     PTX    0.0000
     25 C          -2.4828    5.6402   -0.9105 C.ar      1     PTX    0.0000
     26 C          -3.3452    1.0166   -1.9711 C.3       1     PTX    0.0000
     27 C          -3.9834   -0.2776   -1.3430 C.3       1     PTX    0.0000
     28 C          -3.9216   -0.3574    0.2000 C.3       1     PTX    0.0000
     29 C          -3.2316   -1.5179   -1.9248 C.2       1     PTX    0.0000
     30 O          -3.6784   -2.0569   -2.9164 O.2       1     PTX    0.0000
     31 C          -1.9104   -2.1055   -1.3563 C.3       1     PTX    0.0000
     32 O          -2.1880   -2.8742   -0.1989 O.3       1     PTX    0.0000
     33 C          -2.7192   -4.1231   -0.3065 C.2       1     PTX    0.0000
     34 C          -2.9510   -4.6936    1.0792 C.3       1     PTX    0.0000
     35 O          -2.9733   -4.6960   -1.3410 O.2       1     PTX    0.0000
     36 C          -0.8330   -1.0427   -1.1487 C.2       1     PTX    0.0000
     37 C          -0.2586   -0.7270    0.0397 C.2       1     PTX    0.0000
     38 C          -0.4144   -1.5011    1.3345 C.3       1     PTX    0.0000
     39 C          -0.4270   -0.2243   -2.3795 C.3       1     PTX    0.0000
     40 C           1.0798   -0.5210   -2.6598 C.3       1     PTX    0.0000
     41 C          -0.9871   -0.6363   -3.7721 C.3       1     PTX    0.0000
     42 C          -5.4884   -0.4133   -1.7196 C.3       1     PTX    0.0000
     43 O          -6.3164    0.1523   -0.7253 O.3       1     PTX    0.0000
     44 C          -5.8714    0.2106   -3.0574 C.3       1     PTX    0.0000
     45 C          -5.6068    1.7044   -3.1030 C.3       1     PTX    0.0000
     46 O          -6.3317    2.4167   -2.1269 O.3       1     PTX    0.0000
     47 C          -5.1378    2.8710   -1.5135 C.3       1     PTX    0.0000
     48 C          -4.2556    2.1328   -2.5243 C.3       1     PTX    0.0000
     49 O          -3.5364    2.9198   -3.4283 O.3       1     PTX    0.0000
     50 C          -3.9874    4.0510   -4.0362 C.2       1     PTX    0.0000
     51 C          -2.8950    4.5946   -4.9392 C.3       1     PTX    0.0000
     52 O          -5.0715    4.5691   -3.9029 O.2       1     PTX    0.0000
     53 C           3.9174   -0.8028    2.8446 C.3       1     PTX    0.0000
     54 N           2.6616   -0.4148    3.5031 N.am      1     PTX    0.0000
     55 C           2.1040   -0.9208    4.6480 C.2       1     PTX    0.0000
     56 O           0.9263   -0.6661    4.7566 O.2       1     PTX    0.0000
     57 C           2.7163   -1.7828    5.5133 C.ar      1     PTX    0.0000
     58 C           1.9699   -2.6536    6.2247 C.ar      1     PTX    0.0000
     59 C           2.5287   -3.5283    7.0763 C.ar      1     PTX    0.0000
     60 C           3.8574   -3.5457    7.2494 C.ar      1     PTX    0.0000
     61 C           4.6143   -2.6712    6.5727 C.ar      1     PTX    0.0000
     62 C           4.0461   -1.8007    5.7232 C.ar      1     PTX    0.0000
     63 C           4.0931   -2.3122    2.7791 C.ar      1     PTX    0.0000
     64 C           3.0519   -3.1522    2.6326 C.ar      1     PTX    0.0000
     65 C           3.2296   -4.4810    2.5762 C.ar      1     PTX    0.0000
     66 C           4.4640   -4.9975    2.6632 C.ar      1     PTX    0.0000
     67 C           5.5144   -4.1761    2.8046 C.ar      1     PTX    0.0000
     68 C           5.3252   -2.8489    2.8606 C.ar      1     PTX    0.0000
     69 H           7.5300   -2.4136   -1.3587 H         1     PTL    0.0000
     70 H           5.9808   -2.5770   -0.4619 H         1     PTL    0.0000
     71 H           6.0104   -1.9156   -2.1689 H         1     PTL    0.0000
     72 H           5.3076    2.1827    0.3477 H         1     PTL    0.0000
     73 H           6.8378    1.8969   -0.5123 H         1     PTL    0.0000
     74 H           6.6611    1.3205    1.1676 H         1     PTL    0.0000
     75 H           4.1568   -0.7184   -1.7408 H         1     PTL    0.0000
     76 H           3.7853    0.9182   -1.1329 H         1     PTL    0.0000
     77 H           4.0103    0.9151    1.5455 H         1     PTX    0.0000
     78 H          -0.1363    1.0719    1.0362 H         1     PTX    0.0000
     79 H           0.2975    2.6339   -0.5381 H         1     PTX    0.0000
     80 H           1.3971    1.6775   -1.4535 H         1     PTX    0.0000
     81 H          -0.8094    2.9868   -2.7740 H         1     PTX    0.0000
     82 H          -2.0440    1.0792   -0.2814 H         1     PTX    0.0000
     83 H          -2.3406    5.0283    2.3625 H         1     PTX    0.0000
     84 H          -2.6448    7.4026    2.4249 H         1     PTX    0.0000
     85 H          -2.8533    8.6926    0.3608 H         1     PTX    0.0000
     86 H          -2.7469    7.5493   -1.7982 H         1     PTX    0.0000
     87 H          -2.4389    5.1771   -1.9091 H         1     PTX    0.0000
     88 H          -3.0039    0.6730   -2.9682 H         1     PTX    0.0000
     89 H          -4.2895    0.5733    0.6856 H         1     PTX    0.0000
     90 H          -4.5209   -1.2130    0.5868 H         1     PTX    0.0000
     91 H          -2.9087   -0.5162    0.6073 H         1     PTX    0.0000
     92 H          -1.4623   -2.7988   -2.1067 H         1     PTX    0.0000
     93 H          -3.6524   -4.0448    1.6517 H         1     PTX    0.0000
     94 H          -3.3937   -5.7132    1.0181 H         1     PTX    0.0000
     95 H          -1.9881   -4.7660    1.6340 H         1     PTX    0.0000
     96 H          -1.4239   -1.4031    1.7849 H         1     PTX    0.0000
     97 H          -0.1514   -2.5734    1.2016 H         1     PTX    0.0000
     98 H           0.2861   -1.1366    2.1151 H         1     PTX    0.0000
     99 H           1.4866    0.1131   -3.4802 H         1     PTX    0.0000
    100 H           1.7583   -0.3681   -1.8056 H         1     PTX    0.0000
    101 H           1.2507   -1.5865   -2.9360 H         1     PTX    0.0000
    102 H          -0.5691    0.0050   -4.5807 H         1     PTX    0.0000
    103 H          -0.7235   -1.6847   -4.0374 H         1     PTX    0.0000
    104 H          -2.0725   -0.5910   -3.9394 H         1     PTX    0.0000
    105 H          -5.7843   -1.4908   -1.7258 H         1     PTX    0.0000
    106 H          -7.0718    0.5906   -1.1227 H         1     PTX    0.0000
    107 H          -5.3009   -0.2671   -3.8868 H         1     PTX    0.0000
    108 H          -6.9514    0.0250   -3.2692 H         1     PTX    0.0000
    109 H          -5.8419    2.1209   -4.1080 H         1     PTX    0.0000
    110 H          -5.0838    3.9782   -1.5099 H         1     PTX    0.0000
    111 H          -5.0637    2.4745   -0.4795 H         1     PTX    0.0000
    112 H          -1.9562    4.7628   -4.3641 H         1     PTX    0.0000
    113 H          -2.6886    3.8778   -5.7661 H         1     PTX    0.0000
    114 H          -3.2003    5.5659   -5.3894 H         1     PTX    0.0000
    115 H           4.7666   -0.3160    3.3791 H         1     PTX    0.0000
    116 H           2.0365    0.2104    2.9926 H         1     PTX    0.0000
    117 H           0.8728   -2.7025    6.1188 H         1     PTX    0.0000
    118 H           1.8959   -4.2391    7.6343 H         1     PTX    0.0000
    119 H           4.3202   -4.2600    7.9503 H         1     PTX    0.0000
    120 H           5.7064   -2.6590    6.7294 H         1     PTX    0.0000
    121 H           4.7235   -1.0813    5.2466 H         1     PTX    0.0000
    122 H           2.0256   -2.7617    2.5572 H         1     PTX    0.0000
    123 H           2.3601   -5.1492    2.4579 H         1     PTX    0.0000
    124 H           4.6142   -6.0888    2.6170 H         1     PTX    0.0000
    125 H           6.5334   -4.5921    2.8746 H         1     PTX    0.0000
    126 H           6.2040   -2.1928    2.9760 H         1     PTX    0.0000
@<TRIPOS>BOND
     1     1     2     1
     2     1    69     1
     3     1    70     1
     4     1    71     1
     5     2     3     1
     6     3     4     1
     7     3     5     1
     8     3     7     1
     9     4    72     1
    10     4    73     1
    11     4    74     1
    12     5     6     1
    13     5    75     1
    14     5    76     1
    15     7     8     1
    16     8     9     1
    17     8    53     1
    18     8    77     1
    19     9    10     2
    20     9    11     1
    21    11    12     1
    22    12    13     1
    23    12    37     1
    24    12    78     1
    25    13    14     1
    26    13    79     1
    27    13    80     1
    28    14    15     1
    29    14    16     1
    30    14    39     1
    31    15    81     1
    32    16    17     1
    33    16    26     1
    34    16    82     1
    35    17    18     1
    36    18    19     2
    37    18    20     1
    38    20    21     1
    39    20    25     2
    40    21    22     2
    41    21    83     1
    42    22    23     1
    43    22    84     1
    44    23    24     2
    45    23    85     1
    46    24    25     1
    47    24    86     1
    48    25    87     1
    49    26    27     1
    50    26    48     1
    51    26    88     1
    52    27    28     1
    53    27    29     1
    54    27    42     1
    55    28    89     1
    56    28    90     1
    57    28    91     1
    58    29    30     2
    59    29    31     1
    60    31    32     1
    61    31    36     1
    62    31    92     1
    63    32    33     1
    64    33    34     1
    65    33    35     2
    66    34    93     1
    67    34    94     1
    68    34    95     1
    69    36    37     2
    70    36    39     1
    71    37    38     1
    72    38    96     1
    73    38    97     1
    74    38    98     1
    75    39    40     1
    76    39    41     1
    77    40    99     1
    78    40   100     1
    79    40   101     1
    80    41   102     1
    81    41   103     1
    82    41   104     1
    83    42    43     1
    84    42    44     1
    85    42   105     1
    86    43   106     1
    87    44    45     1
    88    44   107     1
    89    44   108     1
    90    45    46     1
    91    45    48     1
    92    45   109     1
    93    46    47     1
    94    47    48     1
    95    47   110     1
    96    47   111     1
    97    48    49     1
    98    49    50     1
    99    50    51     1
   100    50    52     2
   101    51   112     1
   102    51   113     1
   103    51   114     1
   104    53    54     1
   105    53    63     1
   106    53   115     1
   107    54    55     1
   108    54   116     1
   109    55    56     2
   110    55    57     1
   111    57    58     1
   112    57    62     2
   113    58    59     2
   114    58   117     1
   115    59    60     1
   116    59   118     1
   117    60    61     2
   118    60   119     1
   119    61    62     1
   120    61   120     1
   121    62   121     1
   122    63    64     1
   123    63    68     2
   124    64    65     2
   125    64   122     1
   126    65    66     1
   127    65   123     1
   128    66    67     2
   129    66   124     1
   130    67    68     1
   131    67   125     1
   132    68   126     1
