@<TRIPOS>MOLECULE
PTX 
126 132 0 0 0
SMALL
USER_CHARGES
#CGenFF output mol2 file
@<TRIPOS>ATOM
1	C1     6.5340    -1.9460    -1.1910	C.3	1	PTX1    -0.0600
2	C2     5.6040     0.0900    -0.3130	C.3	1	PTX1     0.0190
3	C3     6.1190     1.4360     0.2010	C.3	1	PTX1    -0.2590
4	C4     4.6170     0.2550    -1.4630	C.3	1	PTX1     0.0640
5	O1     6.7570    -0.6450    -0.6880	O.3	1	PTX1    -0.3440
6	I     5.3970     1.1520    -3.2610	I	1	PTX1    -0.1510
7	H1     7.5300    -2.4140    -1.3590	H	1	PTX1     0.0900
8	H2     5.9810    -2.5770    -0.4620	H	1	PTX1     0.0900
9	H3     6.0100    -1.9160    -2.1690	H	1	PTX1     0.0900
10	H4     5.3080     2.1830     0.3480	H	1	PTX1     0.0900
11	H5     6.8380     1.8970    -0.5120	H	1	PTX1     0.0900
12	H6     6.6610     1.3210     1.1680	H	1	PTX1     0.0900
13	H7     4.1570    -0.7180    -1.7410	H	1	PTX1     0.1400
14	H8     3.7850     0.9180    -1.1330	H	1	PTX1     0.1400
15	N     2.6620    -0.4150     3.5030	N.pl3	1	PTX1    -0.4040
16	C5     3.9310    -0.1890     1.4250	C.3	1	PTX1     0.2130
17	C6     2.6180    -0.5120     0.6960	C.2	1	PTX1     0.8500
18	C7     0.4850     0.5920     0.2340	C.3	1	PTX1     0.2720
19	C8     0.4180     1.5990    -0.9310	C.3	1	PTX1    -0.2120
20	C9    -0.6980     1.2400    -1.9360	C.3	1	PTX1     0.1860
21	C10    -2.0670     1.5510    -1.2750	C.3	1	PTX1     0.1330
22	C11    -2.1980     3.5560     0.1390	C.2	1	PTX1     0.4590
23	C12    -2.3690     4.9120     0.2170	C.2	1	PTX1     0.0860
24	C13    -2.4280     5.5570     1.3990	C.2	1	PTX1    -0.1100
25	C14    -2.5980     6.8880     1.4500	C.2	1	PTX1    -0.1140
26	C15    -2.7130     7.6000     0.3190	C.2	1	PTX1    -0.1150
27	C16    -2.6550     6.9710    -0.8630	C.2	1	PTX1    -0.1140
28	C17    -2.4830     5.6400    -0.9100	C.2	1	PTX1    -0.1100
29	C18    -3.3450     1.0170    -1.9710	C.3	1	PTX1    -0.0740
30	C19    -3.9830    -0.2780    -1.3430	C.3	1	PTX1     0.0810
31	C20    -3.9220    -0.3570     0.2000	C.3	1	PTX1    -0.2630
32	C21    -3.2320    -1.5180    -1.9250	C.2	1	PTX1     0.2970
33	C22    -1.9100    -2.1050    -1.3560	C.3	1	PTX1     0.4320
34	C23    -2.7190    -4.1230    -0.3060	C.2	1	PTX1     0.8340
35	C24    -2.9510    -4.6940     1.0790	C.3	1	PTX1    -0.3110
36	C25    -0.8330    -1.0430    -1.1490	C.2	1	PTX1    -0.1130
37	C26    -0.2590    -0.7270     0.0400	C.2	1	PTX1    -0.1530
38	C27    -0.4140    -1.5010     1.3340	C.3	1	PTX1    -0.2650
39	C28    -0.4270    -0.2240    -2.3790	C.3	1	PTX1     0.0160
40	C29     1.0800    -0.5210    -2.6600	C.3	1	PTX1    -0.2690
41	C30    -0.9870    -0.6360    -3.7720	C.3	1	PTX1    -0.2690
42	C31    -5.4880    -0.4130    -1.7200	C.3	1	PTX1     0.1660
43	C32    -5.8710     0.2110    -3.0570	C.3	1	PTX1    -0.2010
44	C33    -5.6070     1.7040    -3.1030	C.3	1	PTX1     0.0150
45	C34    -5.1380     2.8710    -1.5130	C.3	1	PTX1    -0.1060
46	C35    -4.2560     2.1330    -2.5240	C.3	1	PTX1     0.3660
47	C36    -3.9870     4.0510    -4.0360	C.2	1	PTX1     0.8850
48	C37    -2.8950     4.5950    -4.9390	C.3	1	PTX1    -0.3130
49	C38     3.9170    -0.8030     2.8450	C.3	1	PTX1     0.1270
50	C39     2.1040    -0.9210     4.6480	C.2	1	PTX1     0.3410
51	C40     2.7160    -1.7830     5.5130	C.2	1	PTX1    -0.1370
52	C41     1.9700    -2.6540     6.2250	C.2	1	PTX1    -0.0240
53	C42     2.5290    -3.5280     7.0760	C.2	1	PTX1    -0.1090
54	C43     3.8570    -3.5460     7.2490	C.2	1	PTX1    -0.1150
55	C44     4.6140    -2.6710     6.5730	C.2	1	PTX1    -0.1090
56	C45     4.0460    -1.8010     5.7230	C.2	1	PTX1    -0.0240
57	C46     4.0930    -2.3120     2.7790	C.2	1	PTX1    -0.0400
58	C47     3.0520    -3.1520     2.6330	C.2	1	PTX1    -0.1060
59	C48     3.2300    -4.4810     2.5760	C.2	1	PTX1    -0.1150
60	C49     4.4640    -4.9970     2.6630	C.2	1	PTX1    -0.1150
61	C50     5.5140    -4.1760     2.8050	C.2	1	PTX1    -0.1150
62	C51     5.3250    -2.8490     2.8610	C.2	1	PTX1    -0.1060
63	O2     5.0770    -0.6700     0.7560	O.3	1	PTX1    -0.4680
64	O3     2.3990    -1.5600     0.1320	O.co2	1	PTX1    -0.6230
65	O4     1.7750     0.5530     0.8040	O.3	1	PTX1    -0.4320
66	O5    -0.5860     2.0910    -3.0460	O.3	1	PTX1    -0.4600
67	O6    -2.1550     2.9420    -1.0930	O.3	1	PTX1    -0.3100
68	O7    -2.0910     2.8920     1.1520	O.co2	1	PTX1    -0.4960
69	O8    -3.6780    -2.0570    -2.9160	O.2	1	PTX1    -0.5150
70	O9    -2.1880    -2.8740    -0.1990	O.3	1	PTX1    -0.4270
71	O10    -2.9730    -4.6960    -1.3410	O.co2	1	PTX1    -0.6250
72	O11    -6.3160     0.1520    -0.7250	O.3	1	PTX1    -0.6420
73	O12    -6.3320     2.4170    -2.1270	O.3	1	PTX1    -0.3430
74	O13    -3.5360     2.9200    -3.4280	O.3	1	PTX1    -0.4220
75	O14    -5.0710     4.5690    -3.9030	O.co2	1	PTX1    -0.6170
76	O15     0.9260    -0.6660     4.7570	O.2	1	PTX1    -0.4580
77	H9     4.0100     0.9150     1.5460	H	1	PTX1     0.0900
78	H10    -0.1360     1.0720     1.0360	H	1	PTX1     0.0900
79	H11     0.2980     2.6340    -0.5380	H	1	PTX1     0.0900
80	H12     1.3970     1.6780    -1.4540	H	1	PTX1     0.0900
81	H13    -0.8090     2.9870    -2.7740	H	1	PTX1     0.2920
82	H14    -2.0440     1.0790    -0.2810	H	1	PTX1     0.0900
83	H15    -2.3410     5.0280     2.3620	H	1	PTX1     0.1150
84	H16    -2.6450     7.4030     2.4250	H	1	PTX1     0.1150
85	H17    -2.8530     8.6930     0.3610	H	1	PTX1     0.1150
86	H18    -2.7470     7.5490    -1.7980	H	1	PTX1     0.1150
87	H19    -2.4390     5.1770    -1.9090	H	1	PTX1     0.1150
88	H20    -3.0040     0.6730    -2.9680	H	1	PTX1     0.0900
89	H21    -4.2900     0.5730     0.6860	H	1	PTX1     0.0900
90	H22    -4.5210    -1.2130     0.5870	H	1	PTX1     0.0900
91	H23    -2.9090    -0.5160     0.6070	H	1	PTX1     0.0900
92	H24    -1.4620    -2.7990    -2.1070	H	1	PTX1     0.0900
93	H25    -3.6520    -4.0450     1.6520	H	1	PTX1     0.0900
94	H26    -3.3940    -5.7130     1.0180	H	1	PTX1     0.0900
95	H27    -1.9880    -4.7660     1.6340	H	1	PTX1     0.0900
96	H28    -1.4240    -1.4030     1.7850	H	1	PTX1     0.0900
97	H29    -0.1510    -2.5730     1.2020	H	1	PTX1     0.0900
98	H30     0.2860    -1.1370     2.1150	H	1	PTX1     0.0900
99	H31     1.4870     0.1130    -3.4800	H	1	PTX1     0.0900
100	H32     1.7580    -0.3680    -1.8060	H	1	PTX1     0.0900
101	H33     1.2510    -1.5870    -2.9360	H	1	PTX1     0.0900
102	H34    -0.5690     0.0050    -4.5810	H	1	PTX1     0.0900
103	H35    -0.7240    -1.6850    -4.0370	H	1	PTX1     0.0900
104	H36    -2.0720    -0.5910    -3.9390	H	1	PTX1     0.0900
105	H37    -5.7840    -1.4910    -1.7260	H	1	PTX1     0.0900
106	H38    -7.0720     0.5910    -1.1230	H	1	PTX1     0.4000
107	H39    -5.3010    -0.2670    -3.8870	H	1	PTX1     0.0900
108	H40    -6.9510     0.0250    -3.2690	H	1	PTX1     0.0900
109	H41    -5.8420     2.1210    -4.1080	H	1	PTX1     0.0900
110	H42    -5.0840     3.9780    -1.5100	H	1	PTX1     0.0900
111	H43    -5.0640     2.4740    -0.4790	H	1	PTX1     0.0900
112	H44    -1.9560     4.7630    -4.3640	H	1	PTX1     0.0900
113	H45    -2.6890     3.8780    -5.7660	H	1	PTX1     0.0900
114	H46    -3.2000     5.5660    -5.3890	H	1	PTX1     0.0900
115	H47     4.7670    -0.3160     3.3790	H	1	PTX1     0.0900
116	H48     2.0360     0.2100     2.9930	H	1	PTX1     0.2740
117	H49     0.8730    -2.7030     6.1190	H	1	PTX1     0.1150
118	H50     1.8960    -4.2390     7.6340	H	1	PTX1     0.1150
119	H51     4.3200    -4.2600     7.9500	H	1	PTX1     0.1150
120	H52     5.7060    -2.6590     6.7290	H	1	PTX1     0.1150
121	H53     4.7230    -1.0810     5.2470	H	1	PTX1     0.1150
122	H54     2.0260    -2.7620     2.5570	H	1	PTX1     0.1150
123	H55     2.3600    -5.1490     2.4580	H	1	PTX1     0.1150
124	H56     4.6140    -6.0890     2.6170	H	1	PTX1     0.1150
125	H57     6.5330    -4.5920     2.8750	H	1	PTX1     0.1150
126	H58     6.2040    -2.1930     2.9760	H	1	PTX1     0.1150
@<TRIPOS>BOND
1	1	5	1
2	1	7	1
3	1	8	1
4	1	9	1
5	2	3	1
6	2	4	1
7	2	63	1
8	3	10	1
9	3	11	1
10	3	12	1
11	4	6	1
12	4	13	1
13	4	14	1
14	2	5	1
15	15	50	1
16	15	116	1
17	16	17	1
18	16	49	1
19	16	77	1
20	17	64	2
21	17	65	1
22	18	19	1
23	18	37	1
24	18	78	1
25	19	20	1
26	19	79	1
27	19	80	1
28	20	21	1
29	20	39	1
30	20	66	1
31	21	29	1
32	21	67	1
33	21	82	1
34	22	23	1
35	22	68	2
36	23	24	1
37	23	28	2
38	24	25	2
39	24	83	1
40	25	26	1
41	25	84	1
42	26	27	2
43	26	85	1
44	27	28	1
45	27	86	1
46	28	87	1
47	29	30	1
48	29	46	1
49	29	88	1
50	30	31	1
51	30	32	1
52	30	42	1
53	31	89	1
54	31	90	1
55	31	91	1
56	32	33	1
57	32	69	2
58	33	36	1
59	33	70	1
60	33	92	1
61	34	35	1
62	34	71	2
63	35	93	1
64	35	94	1
65	35	95	1
66	36	37	2
67	36	39	1
68	37	38	1
69	38	96	1
70	38	97	1
71	38	98	1
72	39	40	1
73	39	41	1
74	40	99	1
75	40	100	1
76	40	101	1
77	41	102	1
78	41	103	1
79	41	104	1
80	42	43	1
81	42	72	1
82	42	105	1
83	43	44	1
84	43	107	1
85	43	108	1
86	44	46	1
87	44	73	1
88	44	109	1
89	45	46	1
90	45	110	1
91	45	111	1
92	46	74	1
93	47	48	1
94	47	75	2
95	48	112	1
96	48	113	1
97	48	114	1
98	15	49	1
99	49	57	1
100	49	115	1
101	50	51	1
102	50	76	2
103	51	52	1
104	51	56	2
105	52	53	2
106	52	117	1
107	53	54	1
108	53	118	1
109	54	55	2
110	54	119	1
111	55	56	1
112	55	120	1
113	56	121	1
114	57	58	1
115	57	62	2
116	58	59	2
117	58	122	1
118	59	60	1
119	59	123	1
120	60	61	2
121	60	124	1
122	61	62	1
123	61	125	1
124	62	126	1
125	16	63	1
126	18	65	1
127	66	81	1
128	22	67	1
129	34	70	1
130	72	106	1
131	45	73	1
132	47	74	1
