@<TRIPOS>MOLECULE
PTX
201 208 1 0 0
SMALL
USER_CHARGES


@<TRIPOS>ATOM
      1 O          -4.3991   -8.9440    2.3513 O.2       1     PTL    0.0000
      2 C          -3.9694   -7.8604    2.0065 C.2       1     PTL    0.0000
      3 O          -4.8057   -6.9600    1.3917 O.3       1     PTX    0.0000
      4 C          -4.2989   -5.7048    0.9829 C.3       1     PTX    0.0000
      5 C          -4.8793   -5.3203   -0.3864 C.2       1     PTX    0.0000
      6 O          -5.8391   -4.5952   -0.5148 O.2       1     PTX    0.0000
      7 O          -4.1194   -5.8611   -1.3797 O.3       1     PTX    0.0000
      8 C          -4.2631   -5.4985   -2.7352 C.3       1     PTX    0.0000
      9 C          -4.8104   -6.6553   -3.5875 C.3       1     PTX    0.0000
     10 C          -5.5031   -6.1363   -4.8699 C.3       1     PTX    0.0000
     11 O          -6.0975   -7.2332   -5.5115 O.3       1     PTX    0.0000
     12 C          -4.4131   -5.5966   -5.8403 C.3       1     PTX    0.0000
     13 C          -4.8310   -4.7562   -7.0798 C.3       1     PTX    0.0000
     14 C          -4.4468   -5.3888   -8.4450 C.3       1     PTX    0.0000
     15 C          -3.0292   -5.1924   -9.0002 C.3       1     PTX    0.0000
     16 O          -3.4760   -4.4139  -10.0933 O.3       1     PTX    0.0000
     17 C          -4.8106   -4.5258   -9.6720 C.3       1     PTX    0.0000
     18 C          -5.4384   -3.1762   -9.3845 C.3       1     PTX    0.0000
     19 C          -4.7152   -2.4394   -8.2652 C.3       1     PTX    0.0000
     20 O          -3.3958   -2.1698   -8.6896 O.3       1     PTX    0.0000
     21 C          -4.7396   -3.1877   -6.8994 C.3       1     PTX    0.0000
     22 C          -3.4956   -2.6947   -6.1263 C.3       1     PTX    0.0000
     23 C          -6.0075   -2.6754   -6.1435 C.2       1     PTX    0.0000
     24 O          -6.9736   -2.3031   -6.7758 O.2       1     PTX    0.0000
     25 C          -6.1724   -2.6069   -4.6023 C.3       1     PTX    0.0000
     26 O          -5.4770   -1.4848   -4.0934 O.3       1     PTX    0.0000
     27 C          -5.9657   -0.2124   -4.0130 C.2       1     PTX    0.0000
     28 O          -5.2778    0.7056   -3.6157 O.2       1     PTX    0.0000
     29 C          -7.4147   -0.0015   -4.4137 C.3       1     PTX    0.0000
     30 C          -5.8050   -3.9291   -3.9404 C.2       1     PTX    0.0000
     31 C          -6.6040   -5.1561   -4.3943 C.3       1     PTX    0.0000
     32 C          -7.4174   -5.6632   -3.1618 C.3       1     PTX    0.0000
     33 C          -7.7913   -4.9669   -5.3821 C.3       1     PTX    0.0000
     34 C          -4.8085   -4.1067   -3.0372 C.2       1     PTX    0.0000
     35 C          -4.0163   -3.0046   -2.3564 C.3       1     PTX    0.0000
     36 O          -5.0823   -6.6228   -8.6392 O.3       1     PTX    0.0000
     37 C          -4.4653   -7.8254   -8.7958 C.2       1     PTX    0.0000
     38 O          -3.2944   -8.0786   -8.6377 O.2       1     PTX    0.0000
     39 C          -5.4967   -8.8631   -9.2000 C.3       1     PTX    0.0000
     40 O          -3.6574   -6.7167   -6.2147 O.3       1     PTX    0.0000
     41 C          -2.2916   -6.7707   -6.0395 C.2       1     PTX    0.0000
     42 O          -1.6732   -5.7287   -5.9440 O.2       1     PTX    0.0000
     43 C          -1.6570   -7.9747   -5.8953 C.ar      1     PTX    0.0000
     44 C          -0.3243   -8.0557   -5.7108 C.ar      1     PTX    0.0000
     45 C           0.2823   -9.2455   -5.5716 C.ar      1     PTX    0.0000
     46 C          -0.4335  -10.3784   -5.6136 C.ar      1     PTX    0.0000
     47 C          -1.7601  -10.3126   -5.7946 C.ar      1     PTX    0.0000
     48 C          -2.3642   -9.1218   -5.9330 C.ar      1     PTX    0.0000
     49 C          -4.5562   -4.6330    2.0703 C.3       1     PTX    0.0000
     50 N          -4.0386   -5.1380    3.3514 N.am      1     PTX    0.0000
     51 C          -3.6252   -4.4235    4.4442 C.2       1     PTX    0.0000
     52 O          -2.8399   -5.0194    5.1447 O.2       1     PTX    0.0000
     53 C          -3.9158   -3.1087    4.6681 C.ar      1     PTX    0.0000
     54 C          -3.0748   -2.3470    5.3972 C.ar      1     PTX    0.0000
     55 C          -3.3238   -1.0480    5.6257 C.ar      1     PTX    0.0000
     56 C          -4.4394   -0.4820    5.1447 C.ar      1     PTX    0.0000
     57 C          -5.3062   -1.2320    4.4501 C.ar      1     PTX    0.0000
     58 C          -5.0469   -2.5297    4.2238 C.ar      1     PTX    0.0000
     59 C          -3.8410   -3.3588    1.6459 C.ar      1     PTX    0.0000
     60 C          -2.4981   -3.2736    1.6866 C.ar      1     PTX    0.0000
     61 C          -1.8615   -2.1549    1.3076 C.ar      1     PTX    0.0000
     62 C          -2.5630   -1.0964    0.8764 C.ar      1     PTX    0.0000
     63 C          -3.9011   -1.1670    0.8234 C.ar      1     PTX    0.0000
     64 C          -4.5292   -2.2907    1.2019 C.ar      1     PTX    0.0000
     65 O          -2.6775   -7.5021    2.2430 O.3       1     PTL    0.0000
     66 C          -1.8016   -8.2997    3.0065 C.3       1     PTL    0.0000
     67 C          -0.7379   -7.3637    3.5404 C.ar      1     PTL    0.0000
     68 C          -0.0353   -6.5957    2.6915 C.ar      1     PTL    0.0000
     69 C           0.8428   -5.6928    3.1496 C.ar      1     PTL    0.0000
     70 C           1.0207   -5.4775    4.4670 C.ar      1     PTL    0.0000
     71 O           1.9317   -4.5553    4.9128 O.3       1     PTL    0.0000
     72 C           1.4166   -3.2798    5.2556 C.3       1     PTL    0.0000
     73 O           2.6143   -2.5267    5.3291 O.3       1     PTL    0.0000
     74 C           2.4795   -1.1332    5.2046 C.3       1     PTL    0.0000
     75 C           3.8291   -0.4830    5.4744 C.3       1     PTL    0.0000
     76 O           3.7012    0.9020    5.2638 O.3       1     PTL    0.0000
     77 C           4.9124    1.5952    5.4384 C.3       1     PTL    0.0000
     78 C           4.6703    3.0762    5.1455 C.3       1     PTL    0.0000
     79 C           5.9554    3.9105    5.2685 C.3       1     PTL    0.0000
     80 C           5.7036    5.3925    4.9459 C.3       1     PTL    0.0000
     81 C           6.9864    6.2342    5.0424 C.3       1     PTL    0.0000
     82 C           6.7261    7.7113    4.7046 C.3       1     PTL    0.0000
     83 C           8.0061    8.5587    4.7880 C.3       1     PTL    0.0000
     84 C           7.7390   10.0335    4.4451 C.3       1     PTL    0.0000
     85 C           9.0163   10.8854    4.5245 C.3       1     PTL    0.0000
     86 C           8.7442   12.3596    4.1833 C.3       1     PTL    0.0000
     87 C          10.0192   13.2148    4.2641 C.3       1     PTL    0.0000
     88 C           9.7437   14.6895    3.9276 C.3       1     PTL    0.0000
     89 C          11.0171   15.5468    4.0119 C.3       1     PTL    0.0000
     90 C          10.7395   17.0223    3.6806 C.3       1     PTL    0.0000
     91 C          12.0118   17.8809    3.7681 C.3       1     PTL    0.0000
     92 C          11.7331   19.3569    3.4405 C.3       1     PTL    0.0000
     93 C          13.0044   20.2162    3.5294 C.3       1     PTL    0.0000
     94 C          12.7219   21.6888    3.2035 C.3       1     PTL    0.0000
     95 C           0.4550   -2.7688    4.1848 C.3       1     PTL    0.0000
     96 C           0.7518   -3.3294    6.6266 C.3       1     PTL    0.0000
     97 C           0.3970   -6.3331    5.2993 C.ar      1     PTL    0.0000
     98 C          -0.4864   -7.2399    4.8539 C.ar      1     PTL    0.0000
     99 H          -3.1992   -5.7791    0.8223 H         1     PTX    0.0000
    100 H          -3.2012   -5.3920   -3.0882 H         1     PTX    0.0000
    101 H          -3.9917   -7.3747   -3.8183 H         1     PTX    0.0000
    102 H          -5.5027   -7.2973   -3.0005 H         1     PTX    0.0000
    103 H          -5.4082   -7.8691   -5.7297 H         1     PTX    0.0000
    104 H          -3.7610   -4.9584   -5.2219 H         1     PTX    0.0000
    105 H          -5.9215   -4.9388   -7.1795 H         1     PTX    0.0000
    106 H          -2.4805   -6.0573   -9.4181 H         1     PTX    0.0000
    107 H          -2.3712   -4.5865   -8.3441 H         1     PTX    0.0000
    108 H          -5.3765   -5.0639  -10.4689 H         1     PTX    0.0000
    109 H          -5.4304   -2.5604  -10.3152 H         1     PTX    0.0000
    110 H          -6.5090   -3.3379   -9.1217 H         1     PTX    0.0000
    111 H          -5.1604   -1.4200   -8.1588 H         1     PTX    0.0000
    112 H          -3.3145   -2.2786   -9.6393 H         1     PTX    0.0000
    113 H          -2.5500   -3.1126   -6.5343 H         1     PTX    0.0000
    114 H          -3.4165   -1.5838   -6.1467 H         1     PTX    0.0000
    115 H          -3.4942   -2.9615   -5.0564 H         1     PTX    0.0000
    116 H          -7.2470   -2.4868   -4.3437 H         1     PTX    0.0000
    117 H          -8.1092   -0.5678   -3.7542 H         1     PTX    0.0000
    118 H          -7.6878    1.0722   -4.3004 H         1     PTX    0.0000
    119 H          -7.5881   -0.2510   -5.4816 H         1     PTX    0.0000
    120 H          -7.9615   -6.6095   -3.3831 H         1     PTX    0.0000
    121 H          -6.8342   -5.8707   -2.2484 H         1     PTX    0.0000
    122 H          -8.1683   -4.9101   -2.8298 H         1     PTX    0.0000
    123 H          -8.3188   -5.9293   -5.5695 H         1     PTX    0.0000
    124 H          -8.5610   -4.2649   -4.9903 H         1     PTX    0.0000
    125 H          -7.5706   -4.5971   -6.3933 H         1     PTX    0.0000
    126 H          -3.3409   -2.4556   -3.0445 H         1     PTX    0.0000
    127 H          -4.6928   -2.2917   -1.8356 H         1     PTX    0.0000
    128 H          -3.3518   -3.3977   -1.5566 H         1     PTX    0.0000
    129 H          -6.2961   -8.9334   -8.4275 H         1     PTX    0.0000
    130 H          -5.9553   -8.5951  -10.1787 H         1     PTX    0.0000
    131 H          -5.0284   -9.8681   -9.3009 H         1     PTX    0.0000
    132 H           0.3180   -7.1604   -5.6692 H         1     PTX    0.0000
    133 H           1.3744   -9.2949   -5.4224 H         1     PTX    0.0000
    134 H           0.0644  -11.3556   -5.4995 H         1     PTX    0.0000
    135 H          -2.3547  -11.2413   -5.8284 H         1     PTX    0.0000
    136 H          -3.4578   -9.1320   -6.0754 H         1     PTX    0.0000
    137 H          -5.6598   -4.5134    2.1569 H         1     PTX    0.0000
    138 H          -3.8258   -6.1334    3.4067 H         1     PTX    0.0000
    139 H          -2.1393   -2.7519    5.8157 H         1     PTX    0.0000
    140 H          -2.6103   -0.4428    6.2104 H         1     PTX    0.0000
    141 H          -4.6508    0.5833    5.3345 H         1     PTX    0.0000
    142 H          -6.2423   -0.7823    4.0778 H         1     PTX    0.0000
    143 H          -5.8216   -3.1012    3.6943 H         1     PTX    0.0000
    144 H          -1.8987   -4.1308    2.0352 H         1     PTX    0.0000
    145 H          -0.7608   -2.1051    1.3484 H         1     PTX    0.0000
    146 H          -2.0430   -0.1760    0.5632 H         1     PTX    0.0000
    147 H          -4.4847   -0.3027    0.4646 H         1     PTX    0.0000
    148 H          -5.6295   -2.3267    1.1451 H         1     PTX    0.0000
    149 H          -2.3562   -8.7837    3.8402 H         1     PTL    0.0000
    150 H          -1.3480   -9.0783    2.3527 H         1     PTL    0.0000
    151 H          -0.1940   -6.6894    1.6042 H         1     PTL    0.0000
    152 H           1.4042   -5.0820    2.4223 H         1     PTL    0.0000
    153 H           2.1729   -0.8772    4.1646 H         1     PTL    0.0000
    154 H           1.7279   -0.7525    5.9320 H         1     PTL    0.0000
    155 H           4.1463   -0.6723    6.5260 H         1     PTL    0.0000
    156 H           4.5937   -0.8955    4.7756 H         1     PTL    0.0000
    157 H           5.2677    1.4627    6.4862 H         1     PTL    0.0000
    158 H           5.6749    1.1912    4.7333 H         1     PTL    0.0000
    159 H           4.2605    3.1827    4.1123 H         1     PTL    0.0000
    160 H           3.9006    3.4717    5.8507 H         1     PTL    0.0000
    161 H           6.3608    3.8177    6.3040 H         1     PTL    0.0000
    162 H           6.7262    3.5066    4.5699 H         1     PTL    0.0000
    163 H           5.2852    5.4787    3.9148 H         1     PTL    0.0000
    164 H           4.9400    5.7995    5.6506 H         1     PTL    0.0000
    165 H           7.4036    6.1570    6.0745 H         1     PTL    0.0000
    166 H           7.7513    5.8241    4.3409 H         1     PTL    0.0000
    167 H           6.3025    7.7851    3.6747 H         1     PTL    0.0000
    168 H           5.9642    8.1224    5.4089 H         1     PTL    0.0000
    169 H           8.4298    8.4885    5.8179 H         1     PTL    0.0000
    170 H           8.7683    8.1477    4.0842 H         1     PTL    0.0000
    171 H           7.3132   10.1023    3.4158 H         1     PTL    0.0000
    172 H           6.9770   10.4440    5.1496 H         1     PTL    0.0000
    173 H           9.4431   10.8165    5.5534 H         1     PTL    0.0000
    174 H           9.7780   10.4768    3.8187 H         1     PTL    0.0000
    175 H           8.3180   12.4283    3.1542 H         1     PTL    0.0000
    176 H           7.9813   12.7669    4.8885 H         1     PTL    0.0000
    177 H          10.4469   13.1441    5.2924 H         1     PTL    0.0000
    178 H          10.7815   12.8101    3.5567 H         1     PTL    0.0000
    179 H           9.3176   14.7606    2.8986 H         1     PTL    0.0000
    180 H           8.9797   15.0928    4.6340 H         1     PTL    0.0000
    181 H          11.4445   15.4733    5.0401 H         1     PTL    0.0000
    182 H          11.7804   15.1459    3.3034 H         1     PTL    0.0000
    183 H          10.3134   17.0963    2.6518 H         1     PTL    0.0000
    184 H           9.9748   17.4221    4.3882 H         1     PTL    0.0000
    185 H          12.4387   17.8051    4.7964 H         1     PTL    0.0000
    186 H          12.7759   17.4827    3.0590 H         1     PTL    0.0000
    187 H          11.3071   19.4338    2.4119 H         1     PTL    0.0000
    188 H          10.9686   19.7553    4.1491 H         1     PTL    0.0000
    189 H          13.4336   20.1437    4.5574 H         1     PTL    0.0000
    190 H          13.7715   19.8236    2.8198 H         1     PTL    0.0000
    191 H          13.6520   22.2989    3.2719 H         1     PTL    0.0000
    192 H          12.3181   21.8016    2.1714 H         1     PTL    0.0000
    193 H          11.9798   22.1221    3.9123 H         1     PTL    0.0000
    194 H           0.0306   -1.7715    4.4361 H         1     PTL    0.0000
    195 H          -0.4353   -3.4268    4.0780 H         1     PTL    0.0000
    196 H           0.9459   -2.6995    3.1880 H         1     PTL    0.0000
    197 H           1.4398   -3.7425    7.3989 H         1     PTL    0.0000
    198 H           0.4316   -2.3201    6.9676 H         1     PTL    0.0000
    199 H          -0.1656   -3.9582    6.6158 H         1     PTL    0.0000
    200 H           0.5869   -6.2661    6.3836 H         1     PTL    0.0000
    201 H          -1.0216   -7.8723    5.5811 H         1     PTL    0.0000
@<TRIPOS>BOND
     1     1     2     2
     2     2     3     1
     3     2    65     1
     4     3     4     1
     5     4     5     1
     6     4    49     1
     7     4    99     1
     8     5     6     2
     9     5     7     1
    10     7     8     1
    11     8     9     1
    12     8    34     1
    13     8   100     1
    14     9    10     1
    15     9   101     1
    16     9   102     1
    17    10    11     1
    18    10    12     1
    19    10    31     1
    20    11   103     1
    21    12    13     1
    22    12    40     1
    23    12   104     1
    24    13    14     1
    25    13    21     1
    26    13   105     1
    27    14    15     1
    28    14    17     1
    29    14    36     1
    30    15    16     1
    31    15   106     1
    32    15   107     1
    33    16    17     1
    34    17    18     1
    35    17   108     1
    36    18    19     1
    37    18   109     1
    38    18   110     1
    39    19    20     1
    40    19    21     1
    41    19   111     1
    42    20   112     1
    43    21    22     1
    44    21    23     1
    45    22   113     1
    46    22   114     1
    47    22   115     1
    48    23    24     2
    49    23    25     1
    50    25    26     1
    51    25    30     1
    52    25   116     1
    53    26    27     1
    54    27    28     2
    55    27    29     1
    56    29   117     1
    57    29   118     1
    58    29   119     1
    59    30    31     1
    60    30    34     2
    61    31    32     1
    62    31    33     1
    63    32   120     1
    64    32   121     1
    65    32   122     1
    66    33   123     1
    67    33   124     1
    68    33   125     1
    69    34    35     1
    70    35   126     1
    71    35   127     1
    72    35   128     1
    73    36    37     1
    74    37    38     2
    75    37    39     1
    76    39   129     1
    77    39   130     1
    78    39   131     1
    79    40    41     1
    80    41    42     2
    81    41    43     1
    82    43    44     1
    83    43    48     2
    84    44    45     2
    85    44   132     1
    86    45    46     1
    87    45   133     1
    88    46    47     2
    89    46   134     1
    90    47    48     1
    91    47   135     1
    92    48   136     1
    93    49    50     1
    94    49    59     1
    95    49   137     1
    96    50    51     1
    97    50   138     1
    98    51    52     2
    99    51    53     1
   100    53    54     1
   101    53    58     2
   102    54    55     2
   103    54   139     1
   104    55    56     1
   105    55   140     1
   106    56    57     2
   107    56   141     1
   108    57    58     1
   109    57   142     1
   110    58   143     1
   111    59    60     1
   112    59    64     2
   113    60    61     2
   114    60   144     1
   115    61    62     1
   116    61   145     1
   117    62    63     2
   118    62   146     1
   119    63    64     1
   120    63   147     1
   121    64   148     1
   122    65    66     1
   123    66    67     1
   124    66   149     1
   125    66   150     1
   126    67    68     1
   127    67    98     2
   128    68    69     2
   129    68   151     1
   130    69    70     1
   131    69   152     1
   132    70    71     1
   133    70    97     2
   134    71    72     1
   135    72    73     1
   136    72    95     1
   137    72    96     1
   138    73    74     1
   139    74    75     1
   140    74   153     1
   141    74   154     1
   142    75    76     1
   143    75   155     1
   144    75   156     1
   145    76    77     1
   146    77    78     1
   147    77   157     1
   148    77   158     1
   149    78    79     1
   150    78   159     1
   151    78   160     1
   152    79    80     1
   153    79   161     1
   154    79   162     1
   155    80    81     1
   156    80   163     1
   157    80   164     1
   158    81    82     1
   159    81   165     1
   160    81   166     1
   161    82    83     1
   162    82   167     1
   163    82   168     1
   164    83    84     1
   165    83   169     1
   166    83   170     1
   167    84    85     1
   168    84   171     1
   169    84   172     1
   170    85    86     1
   171    85   173     1
   172    85   174     1
   173    86    87     1
   174    86   175     1
   175    86   176     1
   176    87    88     1
   177    87   177     1
   178    87   178     1
   179    88    89     1
   180    88   179     1
   181    88   180     1
   182    89    90     1
   183    89   181     1
   184    89   182     1
   185    90    91     1
   186    90   183     1
   187    90   184     1
   188    91    92     1
   189    91   185     1
   190    91   186     1
   191    92    93     1
   192    92   187     1
   193    92   188     1
   194    93    94     1
   195    93   189     1
   196    93   190     1
   197    94   191     1
   198    94   192     1
   199    94   193     1
   200    95   194     1
   201    95   195     1
   202    95   196     1
   203    96   197     1
   204    96   198     1
   205    96   199     1
   206    97    98     1
   207    97   200     1
   208    98   201     1
