@<TRIPOS>MOLECULE
PTX
177 183 1 0 0
SMALL
USER_CHARGES


@<TRIPOS>ATOM
      1 C          -1.1795   12.5243   13.4363 C.3       1     PTL    0.0000
      2 C           0.0705   12.0150   12.7063 C.3       1     PTL    0.0000
      3 C          -0.2910   11.1197   11.5104 C.3       1     PTL    0.0000
      4 C           0.9584   10.6070   10.7758 C.3       1     PTL    0.0000
      5 C           0.5951    9.7130    9.5789 C.3       1     PTL    0.0000
      6 C           1.8438    9.2000    8.8429 C.3       1     PTL    0.0000
      7 C           1.4784    8.3088    7.6446 C.3       1     PTL    0.0000
      8 C           2.7253    7.7944    6.9066 C.3       1     PTL    0.0000
      9 C           2.3557    6.9064    5.7072 C.3       1     PTL    0.0000
     10 C           3.5994    6.3883    4.9663 C.3       1     PTL    0.0000
     11 C           3.2232    5.5029    3.7670 C.3       1     PTL    0.0000
     12 C           4.4621    4.9772    3.0235 C.3       1     PTL    0.0000
     13 C           4.0770    4.0921    1.8269 C.3       1     PTL    0.0000
     14 C           5.3096    3.5535    1.0822 C.3       1     PTL    0.0000
     15 C           4.9128    2.6646   -0.1078 C.3       1     PTL    0.0000
     16 C           6.1375    2.1056   -0.8504 C.3       1     PTL    0.0000
     17 C           5.7266    1.2048   -2.0265 C.3       1     PTL    0.0000
     18 C           6.9374    0.6162   -2.7526 C.3       1     PTL    0.0000
     19 O           6.4712   -0.2146   -3.7889 O.3       1     PTL    0.0000
     20 C           7.4266   -1.0836   -4.3674 C.3       1     PTL    0.0000
     21 C           6.7190   -1.7428   -5.5524 C.3       1     PTL    0.0000
     22 C           8.6626   -0.3319   -4.8458 C.3       1     PTL    0.0000
     23 O           7.6592   -2.0455   -3.3625 O.3       1     PTX    0.0000
     24 C           8.7131   -2.9649   -3.5594 C.3       1     PTX    0.0000
     25 C          10.0667   -2.4382   -3.0587 C.2       1     PTX    0.0000
     26 O          10.2185   -1.4618   -2.3592 O.2       1     PTX    0.0000
     27 O          11.0666   -3.2148   -3.5606 O.3       1     PTX    0.0000
     28 C          12.4159   -2.8446   -3.3911 C.3       1     PTX    0.0000
     29 C          12.8186   -2.6289   -1.9196 C.3       1     PTX    0.0000
     30 C          14.2570   -3.1011   -1.6409 C.3       1     PTX    0.0000
     31 O          14.4932   -3.0059   -0.2621 O.3       1     PTX    0.0000
     32 C          15.2344   -2.1120   -2.3320 C.3       1     PTX    0.0000
     33 O          15.0851   -0.8485   -1.7349 O.3       1     PTX    0.0000
     34 C          14.5677    0.2500   -2.3878 C.2       1     PTX    0.0000
     35 O          14.2301    0.1632   -3.5527 O.2       1     PTX    0.0000
     36 C          14.4363    1.4364   -1.7183 C.ar      1     PTX    0.0000
     37 C          13.9358    2.5388   -2.3108 C.ar      1     PTX    0.0000
     38 C          13.8183    3.6922   -1.6333 C.ar      1     PTX    0.0000
     39 C          14.1998    3.7650   -0.3500 C.ar      1     PTX    0.0000
     40 C          14.6989    2.6758    0.2517 C.ar      1     PTX    0.0000
     41 C          14.8142    1.5240   -0.4278 C.ar      1     PTX    0.0000
     42 C          16.7327   -2.5025   -2.3953 C.3       1     PTX    0.0000
     43 C          17.2365   -3.0561   -3.7789 C.3       1     PTX    0.0000
     44 C          16.6345   -2.3625   -5.0238 C.3       1     PTX    0.0000
     45 C          16.8738   -4.5744   -3.8350 C.2       1     PTX    0.0000
     46 O          17.6870   -5.3817   -3.4341 O.2       1     PTX    0.0000
     47 C          15.5120   -5.1399   -4.3231 C.3       1     PTX    0.0000
     48 O          15.4334   -5.0717   -5.7362 O.3       1     PTX    0.0000
     49 C          16.1611   -5.9247   -6.5085 C.2       1     PTX    0.0000
     50 C          15.9217   -5.6124   -7.9727 C.3       1     PTX    0.0000
     51 O          16.8925   -6.7962   -6.0985 O.2       1     PTX    0.0000
     52 C          14.3317   -4.4869   -3.6064 C.2       1     PTX    0.0000
     53 C          13.3283   -3.7850   -4.1912 C.2       1     PTX    0.0000
     54 C          13.0469   -3.7260   -5.6798 C.3       1     PTX    0.0000
     55 C          14.3069   -4.5883   -2.0813 C.3       1     PTX    0.0000
     56 C          13.0285   -5.4177   -1.7373 C.3       1     PTX    0.0000
     57 C          15.3623   -5.4655   -1.3523 C.3       1     PTX    0.0000
     58 C          18.7827   -2.9302   -3.9149 C.3       1     PTX    0.0000
     59 O          19.1420   -1.7471   -4.5975 O.3       1     PTX    0.0000
     60 C          19.5459   -2.9564   -2.5945 C.3       1     PTX    0.0000
     61 C          19.1513   -1.8212   -1.6667 C.3       1     PTX    0.0000
     62 O          19.3870   -0.5503   -2.2280 O.3       1     PTX    0.0000
     63 C          18.0087   -0.2252   -2.1732 C.3       1     PTX    0.0000
     64 C          17.6433   -1.5796   -1.5600 C.3       1     PTX    0.0000
     65 O          17.2148   -1.5746   -0.2299 O.3       1     PTX    0.0000
     66 C          17.7213   -0.8005    0.7684 C.2       1     PTX    0.0000
     67 C          16.9708   -1.0994    2.0536 C.3       1     PTX    0.0000
     68 O          18.6196    0.0042    0.6843 O.2       1     PTX    0.0000
     69 C           8.3102   -4.2813   -2.8544 C.3       1     PTX    0.0000
     70 N           9.2764   -5.3348   -3.1946 N.am      1     PTX    0.0000
     71 C           9.4254   -6.5806   -2.6442 C.2       1     PTX    0.0000
     72 O          10.4685   -7.1114   -2.9506 O.2       1     PTX    0.0000
     73 C           8.6120   -7.1407   -1.6998 C.ar      1     PTX    0.0000
     74 C           9.1271   -8.0326   -0.8272 C.ar      1     PTX    0.0000
     75 C           8.3741   -8.6012    0.1280 C.ar      1     PTX    0.0000
     76 C           7.0725   -8.2994    0.2289 C.ar      1     PTX    0.0000
     77 C           6.5350   -7.4355   -0.6429 C.ar      1     PTX    0.0000
     78 C           7.2969   -6.8723   -1.5943 C.ar      1     PTX    0.0000
     79 C           8.2079   -4.0388   -1.3580 C.ar      1     PTX    0.0000
     80 C           9.2670   -4.1748   -0.5397 C.ar      1     PTX    0.0000
     81 C           9.1634   -3.9508    0.7790 C.ar      1     PTX    0.0000
     82 C           7.9871   -3.5798    1.3053 C.ar      1     PTX    0.0000
     83 C           6.9217   -3.4334    0.5040 C.ar      1     PTX    0.0000
     84 C           7.0365   -3.6603   -0.8135 C.ar      1     PTX    0.0000
     85 H          -0.9022   13.1716   14.3000 H         1     PTL    0.0000
     86 H          -1.8252   13.1255   12.7561 H         1     PTL    0.0000
     87 H          -1.7882   11.6780   13.8291 H         1     PTL    0.0000
     88 H           0.7065   11.4426   13.4232 H         1     PTL    0.0000
     89 H           0.6700   12.8876   12.3525 H         1     PTL    0.0000
     90 H          -0.9288   11.6956   10.7984 H         1     PTL    0.0000
     91 H          -0.8922   10.2505   11.8690 H         1     PTL    0.0000
     92 H           1.5955   10.0305   11.4879 H         1     PTL    0.0000
     93 H           1.5597   11.4766   10.4184 H         1     PTL    0.0000
     94 H          -0.0421   10.2900    8.8672 H         1     PTL    0.0000
     95 H          -0.0064    8.8436    9.9362 H         1     PTL    0.0000
     96 H           2.4803    8.6212    9.5537 H         1     PTL    0.0000
     97 H           2.4461   10.0693    8.4867 H         1     PTL    0.0000
     98 H           0.8416    8.8881    6.9344 H         1     PTL    0.0000
     99 H           0.8754    7.4399    8.0009 H         1     PTL    0.0000
    100 H           3.3610    7.2127    7.6156 H         1     PTL    0.0000
    101 H           3.3294    8.6628    6.5513 H         1     PTL    0.0000
    102 H           1.7201    7.4890    4.9988 H         1     PTL    0.0000
    103 H           1.7501    6.0392    6.0631 H         1     PTL    0.0000
    104 H           4.2343    5.8034    5.6735 H         1     PTL    0.0000
    105 H           4.2062    7.2546    4.6105 H         1     PTL    0.0000
    106 H           2.5896    6.0893    3.0598 H         1     PTL    0.0000
    107 H           2.6131    4.6392    4.1237 H         1     PTL    0.0000
    108 H           5.0955    4.3896    3.7298 H         1     PTL    0.0000
    109 H           5.0730    5.8395    2.6648 H         1     PTL    0.0000
    110 H           3.4467    4.6816    1.1194 H         1     PTL    0.0000
    111 H           3.4606    3.2343    2.1872 H         1     PTL    0.0000
    112 H           5.9404    2.9645    1.7897 H         1     PTL    0.0000
    113 H           5.9262    4.4087    0.7167 H         1     PTL    0.0000
    114 H           4.2879    3.2556   -0.8188 H         1     PTL    0.0000
    115 H           4.2875    1.8165    0.2602 H         1     PTL    0.0000
    116 H           6.7648    1.5193   -0.1374 H         1     PTL    0.0000
    117 H           6.7615    2.9495   -1.2292 H         1     PTL    0.0000
    118 H           5.1094    1.7910   -2.7486 H         1     PTL    0.0000
    119 H           5.0898    0.3711   -1.6439 H         1     PTL    0.0000
    120 H           7.5503    0.0365   -2.0272 H         1     PTL    0.0000
    121 H           7.5468    1.4428   -3.1833 H         1     PTL    0.0000
    122 H           7.3834   -2.4213   -6.1308 H         1     PTL    0.0000
    123 H           6.3486   -0.9747   -6.2694 H         1     PTL    0.0000
    124 H           5.8380   -2.3381   -5.2195 H         1     PTL    0.0000
    125 H           8.3718    0.4904   -5.5387 H         1     PTL    0.0000
    126 H           9.2489    0.1297   -4.0236 H         1     PTL    0.0000
    127 H           9.3576   -0.9895   -5.4137 H         1     PTL    0.0000
    128 H           8.8088   -3.1833   -4.6473 H         1     PTX    0.0000
    129 H          12.5321   -1.8557   -3.9022 H         1     PTX    0.0000
    130 H          12.7070   -1.5604   -1.6294 H         1     PTX    0.0000
    131 H          12.1164   -3.1398   -1.2259 H         1     PTX    0.0000
    132 H          14.4205   -2.0830   -0.0001 H         1     PTX    0.0000
    133 H          14.8979   -2.0307   -3.3751 H         1     PTX    0.0000
    134 H          13.6060    2.5421   -3.3628 H         1     PTX    0.0000
    135 H          13.4070    4.5863   -2.1320 H         1     PTX    0.0000
    136 H          14.1040    4.7124    0.2059 H         1     PTX    0.0000
    137 H          15.0150    2.7286    1.3074 H         1     PTX    0.0000
    138 H          15.2305    0.6612    0.1167 H         1     PTX    0.0000
    139 H          16.8318   -3.3759   -1.7188 H         1     PTX    0.0000
    140 H          16.7055   -1.2543   -4.9645 H         1     PTX    0.0000
    141 H          17.1441   -2.6941   -5.9572 H         1     PTX    0.0000
    142 H          15.5649   -2.5719   -5.1977 H         1     PTX    0.0000
    143 H          15.4393   -6.2189   -4.0488 H         1     PTX    0.0000
    144 H          16.2275   -4.5656   -8.1990 H         1     PTX    0.0000
    145 H          16.5130   -6.2946   -8.6241 H         1     PTX    0.0000
    146 H          14.8444   -5.7391   -8.2247 H         1     PTX    0.0000
    147 H          13.7475   -3.0524   -6.2179 H         1     PTX    0.0000
    148 H          13.0474   -4.7385   -6.1380 H         1     PTX    0.0000
    149 H          12.0267   -3.3415   -5.8970 H         1     PTX    0.0000
    150 H          12.8043   -5.4055   -0.6463 H         1     PTX    0.0000
    151 H          12.1064   -5.1035   -2.2609 H         1     PTX    0.0000
    152 H          13.1346   -6.4837   -2.0421 H         1     PTX    0.0000
    153 H          15.1422   -5.5282   -0.2625 H         1     PTX    0.0000
    154 H          15.3747   -6.5128   -1.7287 H         1     PTX    0.0000
    155 H          16.4149   -5.1486   -1.3862 H         1     PTX    0.0000
    156 H          19.1739   -3.7431   -4.5744 H         1     PTX    0.0000
    157 H          19.9291   -1.3586   -4.2099 H         1     PTX    0.0000
    158 H          19.3658   -3.9183   -2.0616 H         1     PTX    0.0000
    159 H          20.6438   -2.9044   -2.7881 H         1     PTX    0.0000
    160 H          19.6860   -1.8957   -0.6935 H         1     PTX    0.0000
    161 H          17.8305    0.6747   -1.5509 H         1     PTX    0.0000
    162 H          17.6112   -0.0734   -3.1981 H         1     PTX    0.0000
    163 H          15.8747   -0.9634    1.9113 H         1     PTX    0.0000
    164 H          17.1655   -2.1474    2.3762 H         1     PTX    0.0000
    165 H          17.2977   -0.4177    2.8707 H         1     PTX    0.0000
    166 H           7.3289   -4.5633   -3.3032 H         1     PTX    0.0000
    167 H          10.0196   -5.0986   -3.8528 H         1     PTX    0.0000
    168 H          10.1937   -8.3146   -0.8430 H         1     PTX    0.0000
    169 H           8.8254   -9.3164    0.8365 H         1     PTX    0.0000
    170 H           6.4494   -8.7663    1.0095 H         1     PTX    0.0000
    171 H           5.4583   -7.2014   -0.5854 H         1     PTX    0.0000
    172 H           6.7727   -6.2184   -2.3014 H         1     PTX    0.0000
    173 H          10.2446   -4.4764   -0.9433 H         1     PTX    0.0000
    174 H          10.0459   -4.0709    1.4296 H         1     PTX    0.0000
    175 H           7.8972   -3.3941    2.3884 H         1     PTX    0.0000
    176 H           5.9515   -3.1254    0.9285 H         1     PTX    0.0000
    177 H           6.1484   -3.5317   -1.4543 H         1     PTX    0.0000
@<TRIPOS>BOND
     1     1     2     1
     2     1    85     1
     3     1    86     1
     4     1    87     1
     5     2     3     1
     6     2    88     1
     7     2    89     1
     8     3     4     1
     9     3    90     1
    10     3    91     1
    11     4     5     1
    12     4    92     1
    13     4    93     1
    14     5     6     1
    15     5    94     1
    16     5    95     1
    17     6     7     1
    18     6    96     1
    19     6    97     1
    20     7     8     1
    21     7    98     1
    22     7    99     1
    23     8     9     1
    24     8   100     1
    25     8   101     1
    26     9    10     1
    27     9   102     1
    28     9   103     1
    29    10    11     1
    30    10   104     1
    31    10   105     1
    32    11    12     1
    33    11   106     1
    34    11   107     1
    35    12    13     1
    36    12   108     1
    37    12   109     1
    38    13    14     1
    39    13   110     1
    40    13   111     1
    41    14    15     1
    42    14   112     1
    43    14   113     1
    44    15    16     1
    45    15   114     1
    46    15   115     1
    47    16    17     1
    48    16   116     1
    49    16   117     1
    50    17    18     1
    51    17   118     1
    52    17   119     1
    53    18    19     1
    54    18   120     1
    55    18   121     1
    56    19    20     1
    57    20    21     1
    58    20    22     1
    59    20    23     1
    60    21   122     1
    61    21   123     1
    62    21   124     1
    63    22   125     1
    64    22   126     1
    65    22   127     1
    66    23    24     1
    67    24    25     1
    68    24    69     1
    69    24   128     1
    70    25    26     2
    71    25    27     1
    72    27    28     1
    73    28    29     1
    74    28    53     1
    75    28   129     1
    76    29    30     1
    77    29   130     1
    78    29   131     1
    79    30    31     1
    80    30    32     1
    81    30    55     1
    82    31   132     1
    83    32    33     1
    84    32    42     1
    85    32   133     1
    86    33    34     1
    87    34    35     2
    88    34    36     1
    89    36    37     1
    90    36    41     2
    91    37    38     2
    92    37   134     1
    93    38    39     1
    94    38   135     1
    95    39    40     2
    96    39   136     1
    97    40    41     1
    98    40   137     1
    99    41   138     1
   100    42    43     1
   101    42    64     1
   102    42   139     1
   103    43    44     1
   104    43    45     1
   105    43    58     1
   106    44   140     1
   107    44   141     1
   108    44   142     1
   109    45    46     2
   110    45    47     1
   111    47    48     1
   112    47    52     1
   113    47   143     1
   114    48    49     1
   115    49    50     1
   116    49    51     2
   117    50   144     1
   118    50   145     1
   119    50   146     1
   120    52    53     2
   121    52    55     1
   122    53    54     1
   123    54   147     1
   124    54   148     1
   125    54   149     1
   126    55    56     1
   127    55    57     1
   128    56   150     1
   129    56   151     1
   130    56   152     1
   131    57   153     1
   132    57   154     1
   133    57   155     1
   134    58    59     1
   135    58    60     1
   136    58   156     1
   137    59   157     1
   138    60    61     1
   139    60   158     1
   140    60   159     1
   141    61    62     1
   142    61    64     1
   143    61   160     1
   144    62    63     1
   145    63    64     1
   146    63   161     1
   147    63   162     1
   148    64    65     1
   149    65    66     1
   150    66    67     1
   151    66    68     2
   152    67   163     1
   153    67   164     1
   154    67   165     1
   155    69    70     1
   156    69    79     1
   157    69   166     1
   158    70    71     1
   159    70   167     1
   160    71    72     2
   161    71    73     1
   162    73    74     1
   163    73    78     2
   164    74    75     2
   165    74   168     1
   166    75    76     1
   167    75   169     1
   168    76    77     2
   169    76   170     1
   170    77    78     1
   171    77   171     1
   172    78   172     1
   173    79    80     1
   174    79    84     2
   175    80    81     2
   176    80   173     1
   177    81    82     1
   178    81   174     1
   179    82    83     2
   180    82   175     1
   181    83    84     1
   182    83   176     1
   183    84   177     1
