# created with PyMOL 2.5.4
@<TRIPOS>MOLECULE
PTX
177 183 2               
SMALL
USER_CHARGES
@<TRIPOS>ATOM
1	   C	-1.179	12.524	13.436	C.3	1	PTL1	0.000	
2	   C	0.071	12.015	12.706	C.3	1	PTL1	0.000	
3	   C	-0.291	11.120	11.510	C.3	1	PTL1	0.000	
4	   C	0.958	10.607	10.776	C.3	1	PTL1	0.000	
5	   C	0.595	9.713	9.579	C.3	1	PTL1	0.000	
6	   C	1.844	9.200	8.843	C.3	1	PTL1	0.000	
7	   C	1.478	8.309	7.645	C.3	1	PTL1	0.000	
8	   C	2.725	7.794	6.907	C.3	1	PTL1	0.000	
9	   C	2.356	6.906	5.707	C.3	1	PTL1	0.000	
10	   C	3.599	6.388	4.966	C.3	1	PTL1	0.000	
11	   C	3.223	5.503	3.767	C.3	1	PTL1	0.000	
12	   C	4.462	4.977	3.023	C.3	1	PTL1	0.000	
13	   C	4.077	4.092	1.827	C.3	1	PTL1	0.000	
14	   C	5.310	3.553	1.082	C.3	1	PTL1	0.000	
15	   C	4.913	2.665	-0.108	C.3	1	PTL1	0.000	
16	   C	6.137	2.106	-0.850	C.3	1	PTL1	0.000	
17	   C	5.727	1.205	-2.026	C.3	1	PTL1	0.000	
18	   C	6.937	0.616	-2.753	C.3	1	PTL1	0.000	
19	   C	7.427	-1.084	-4.367	C.3	1	PTL1	0.000	
20	   C	6.719	-1.743	-5.552	C.3	1	PTL1	0.000	
21	   C	8.663	-0.332	-4.846	C.3	1	PTL1	0.000	
22	   O	6.471	-0.215	-3.789	O.3	1	PTL1	0.000	
23	   H	-0.902	13.172	14.300	 H	1	PTL1	0.000	
24	   H	-1.825	13.125	12.756	 H	1	PTL1	0.000	
25	   H	-1.788	11.678	13.829	 H	1	PTL1	0.000	
26	   H	0.706	11.443	13.423	 H	1	PTL1	0.000	
27	   H	0.670	12.888	12.352	 H	1	PTL1	0.000	
28	   H	-0.929	11.696	10.798	 H	1	PTL1	0.000	
29	   H	-0.892	10.250	11.869	 H	1	PTL1	0.000	
30	   H	1.595	10.031	11.488	 H	1	PTL1	0.000	
31	   H	1.560	11.477	10.418	 H	1	PTL1	0.000	
32	   H	-0.042	10.290	8.867	 H	1	PTL1	0.000	
33	   H	-0.006	8.844	9.936	 H	1	PTL1	0.000	
34	   H	2.480	8.621	9.554	 H	1	PTL1	0.000	
35	   H	2.446	10.069	8.487	 H	1	PTL1	0.000	
36	   H	0.842	8.888	6.934	 H	1	PTL1	0.000	
37	   H	0.875	7.440	8.001	 H	1	PTL1	0.000	
38	   H	3.361	7.213	7.616	 H	1	PTL1	0.000	
39	   H	3.329	8.663	6.551	 H	1	PTL1	0.000	
40	   H	1.720	7.489	4.999	 H	1	PTL1	0.000	
41	   H	1.750	6.039	6.063	 H	1	PTL1	0.000	
42	   H	4.234	5.803	5.674	 H	1	PTL1	0.000	
43	   H	4.206	7.255	4.610	 H	1	PTL1	0.000	
44	   H	2.590	6.089	3.060	 H	1	PTL1	0.000	
45	   H	2.613	4.639	4.124	 H	1	PTL1	0.000	
46	   H	5.095	4.390	3.730	 H	1	PTL1	0.000	
47	   H	5.073	5.839	2.665	 H	1	PTL1	0.000	
48	   H	3.447	4.682	1.119	 H	1	PTL1	0.000	
49	   H	3.461	3.234	2.187	 H	1	PTL1	0.000	
50	   H	5.940	2.964	1.790	 H	1	PTL1	0.000	
51	   H	5.926	4.409	0.717	 H	1	PTL1	0.000	
52	   H	4.288	3.256	-0.819	 H	1	PTL1	0.000	
53	   H	4.287	1.816	0.260	 H	1	PTL1	0.000	
54	   H	6.765	1.519	-0.137	 H	1	PTL1	0.000	
55	   H	6.761	2.950	-1.229	 H	1	PTL1	0.000	
56	   H	5.109	1.791	-2.749	 H	1	PTL1	0.000	
57	   H	5.090	0.371	-1.644	 H	1	PTL1	0.000	
58	   H	7.550	0.036	-2.027	 H	1	PTL1	0.000	
59	   H	7.547	1.443	-3.183	 H	1	PTL1	0.000	
60	   H	7.383	-2.421	-6.131	 H	1	PTL1	0.000	
61	   H	6.349	-0.975	-6.269	 H	1	PTL1	0.000	
62	   H	5.838	-2.338	-5.220	 H	1	PTL1	0.000	
63	   H	8.372	0.490	-5.539	 H	1	PTL1	0.000	
64	   H	9.249	0.130	-4.024	 H	1	PTL1	0.000	
65	   H	9.358	-0.989	-5.414	 H	1	PTL1	0.000	
66	   N	9.276	-5.335	-3.195	N.pl3	2	PTX1	0.000	
67	   C	8.713	-2.965	-3.559	C.3	2	PTX1	0.000	
68	   C	10.067	-2.438	-3.059	C.2	2	PTX1	0.000	
69	   C	12.416	-2.845	-3.391	C.3	2	PTX1	0.000	
70	   C	12.819	-2.629	-1.920	C.3	2	PTX1	0.000	
71	   C	14.257	-3.101	-1.641	C.3	2	PTX1	0.000	
72	   C	15.234	-2.112	-2.332	C.3	2	PTX1	0.000	
73	   C	14.568	0.250	-2.388	C.2	2	PTX1	0.000	
74	   C	14.436	1.436	-1.718	C.2	2	PTX1	0.000	
75	   C	13.936	2.539	-2.311	C.2	2	PTX1	0.000	
76	   C	13.818	3.692	-1.633	C.2	2	PTX1	0.000	
77	   C	14.200	3.765	-0.350	C.2	2	PTX1	0.000	
78	   C	14.699	2.676	0.252	C.2	2	PTX1	0.000	
79	   C	14.814	1.524	-0.428	C.2	2	PTX1	0.000	
80	   C	16.733	-2.503	-2.395	C.3	2	PTX1	0.000	
81	   C	17.236	-3.056	-3.779	C.3	2	PTX1	0.000	
82	   C	16.635	-2.362	-5.024	C.3	2	PTX1	0.000	
83	   C	16.874	-4.574	-3.835	C.2	2	PTX1	0.000	
84	   C	15.512	-5.140	-4.323	C.3	2	PTX1	0.000	
85	   C	16.161	-5.925	-6.509	C.2	2	PTX1	0.000	
86	   C	15.922	-5.612	-7.973	C.3	2	PTX1	0.000	
87	   C	14.332	-4.487	-3.606	C.2	2	PTX1	0.000	
88	   C	13.328	-3.785	-4.191	C.2	2	PTX1	0.000	
89	   C	13.047	-3.726	-5.680	C.3	2	PTX1	0.000	
90	   C	14.307	-4.588	-2.081	C.3	2	PTX1	0.000	
91	   C	13.028	-5.418	-1.737	C.3	2	PTX1	0.000	
92	   C	15.362	-5.465	-1.352	C.3	2	PTX1	0.000	
93	   C	18.783	-2.930	-3.915	C.3	2	PTX1	0.000	
94	   C	19.546	-2.956	-2.595	C.3	2	PTX1	0.000	
95	   C	19.151	-1.821	-1.667	C.3	2	PTX1	0.000	
96	   C	18.009	-0.225	-2.173	C.3	2	PTX1	0.000	
97	   C	17.643	-1.580	-1.560	C.3	2	PTX1	0.000	
98	   C	17.721	-0.800	0.768	C.2	2	PTX1	0.000	
99	   C	16.971	-1.099	2.054	C.3	2	PTX1	0.000	
100	   C	8.310	-4.281	-2.854	C.3	2	PTX1	0.000	
101	   C	9.425	-6.581	-2.644	C.2	2	PTX1	0.000	
102	   C	8.612	-7.141	-1.700	C.2	2	PTX1	0.000	
103	   C	9.127	-8.033	-0.827	C.2	2	PTX1	0.000	
104	   C	8.374	-8.601	0.128	C.2	2	PTX1	0.000	
105	   C	7.073	-8.299	0.229	C.2	2	PTX1	0.000	
106	   C	6.535	-7.436	-0.643	C.2	2	PTX1	0.000	
107	   C	7.297	-6.872	-1.594	C.2	2	PTX1	0.000	
108	   C	8.208	-4.039	-1.358	C.2	2	PTX1	0.000	
109	   C	9.267	-4.175	-0.540	C.2	2	PTX1	0.000	
110	   C	9.163	-3.951	0.779	C.2	2	PTX1	0.000	
111	   C	7.987	-3.580	1.305	C.2	2	PTX1	0.000	
112	   C	6.922	-3.433	0.504	C.2	2	PTX1	0.000	
113	   C	7.036	-3.660	-0.813	C.2	2	PTX1	0.000	
114	   O	7.659	-2.046	-3.362	O.3	2	PTX1	0.000	
115	   O	10.219	-1.462	-2.359	O.co2	2	PTX1	0.000	
116	   O	11.067	-3.215	-3.561	O.3	2	PTX1	0.000	
117	   O	14.493	-3.006	-0.262	O.3	2	PTX1	0.000	
118	   O	15.085	-0.849	-1.735	O.3	2	PTX1	0.000	
119	   O	14.230	0.163	-3.553	O.co2	2	PTX1	0.000	
120	   O	17.687	-5.382	-3.434	O.2	2	PTX1	0.000	
121	   O	15.433	-5.072	-5.736	O.3	2	PTX1	0.000	
122	   O	16.892	-6.796	-6.098	O.co2	2	PTX1	0.000	
123	   O	19.142	-1.747	-4.597	O.3	2	PTX1	0.000	
124	   O	19.387	-0.550	-2.228	O.3	2	PTX1	0.000	
125	   O	17.215	-1.575	-0.230	O.3	2	PTX1	0.000	
126	   O	18.620	0.004	0.684	O.co2	2	PTX1	0.000	
127	   O	10.469	-7.111	-2.951	O.2	2	PTX1	0.000	
128	   H	8.809	-3.183	-4.647	 H	2	PTX1	0.000	
129	   H	12.532	-1.856	-3.902	 H	2	PTX1	0.000	
130	   H	12.707	-1.560	-1.629	 H	2	PTX1	0.000	
131	   H	12.116	-3.140	-1.226	 H	2	PTX1	0.000	
132	   H	14.420	-2.083	-0.000	 H	2	PTX1	0.000	
133	   H	14.898	-2.031	-3.375	 H	2	PTX1	0.000	
134	   H	13.606	2.542	-3.363	 H	2	PTX1	0.000	
135	   H	13.407	4.586	-2.132	 H	2	PTX1	0.000	
136	   H	14.104	4.712	0.206	 H	2	PTX1	0.000	
137	   H	15.015	2.729	1.307	 H	2	PTX1	0.000	
138	   H	15.231	0.661	0.117	 H	2	PTX1	0.000	
139	   H	16.832	-3.376	-1.719	 H	2	PTX1	0.000	
140	   H	16.705	-1.254	-4.964	 H	2	PTX1	0.000	
141	   H	17.144	-2.694	-5.957	 H	2	PTX1	0.000	
142	   H	15.565	-2.572	-5.198	 H	2	PTX1	0.000	
143	   H	15.439	-6.219	-4.049	 H	2	PTX1	0.000	
144	   H	16.228	-4.566	-8.199	 H	2	PTX1	0.000	
145	   H	16.513	-6.295	-8.624	 H	2	PTX1	0.000	
146	   H	14.844	-5.739	-8.225	 H	2	PTX1	0.000	
147	   H	13.748	-3.052	-6.218	 H	2	PTX1	0.000	
148	   H	13.047	-4.739	-6.138	 H	2	PTX1	0.000	
149	   H	12.027	-3.342	-5.897	 H	2	PTX1	0.000	
150	   H	12.804	-5.405	-0.646	 H	2	PTX1	0.000	
151	   H	12.106	-5.103	-2.261	 H	2	PTX1	0.000	
152	   H	13.135	-6.484	-2.042	 H	2	PTX1	0.000	
153	   H	15.142	-5.528	-0.262	 H	2	PTX1	0.000	
154	   H	15.375	-6.513	-1.729	 H	2	PTX1	0.000	
155	   H	16.415	-5.149	-1.386	 H	2	PTX1	0.000	
156	   H	19.174	-3.743	-4.574	 H	2	PTX1	0.000	
157	   H	19.929	-1.359	-4.210	 H	2	PTX1	0.000	
158	   H	19.366	-3.918	-2.062	 H	2	PTX1	0.000	
159	   H	20.644	-2.904	-2.788	 H	2	PTX1	0.000	
160	   H	19.686	-1.896	-0.693	 H	2	PTX1	0.000	
161	   H	17.830	0.675	-1.551	 H	2	PTX1	0.000	
162	   H	17.611	-0.073	-3.198	 H	2	PTX1	0.000	
163	   H	15.875	-0.963	1.911	 H	2	PTX1	0.000	
164	   H	17.166	-2.147	2.376	 H	2	PTX1	0.000	
165	   H	17.298	-0.418	2.871	 H	2	PTX1	0.000	
166	   H	7.329	-4.563	-3.303	 H	2	PTX1	0.000	
167	   H	10.020	-5.099	-3.853	 H	2	PTX1	0.000	
168	   H	10.194	-8.315	-0.843	 H	2	PTX1	0.000	
169	   H	8.825	-9.316	0.836	 H	2	PTX1	0.000	
170	   H	6.449	-8.766	1.010	 H	2	PTX1	0.000	
171	   H	5.458	-7.201	-0.585	 H	2	PTX1	0.000	
172	   H	6.773	-6.218	-2.301	 H	2	PTX1	0.000	
173	   H	10.245	-4.476	-0.943	 H	2	PTX1	0.000	
174	   H	10.046	-4.071	1.430	 H	2	PTX1	0.000	
175	   H	7.897	-3.394	2.388	 H	2	PTX1	0.000	
176	   H	5.951	-3.125	0.928	 H	2	PTX1	0.000	
177	   H	6.148	-3.532	-1.454	 H	2	PTX1	0.000	
@<TRIPOS>BOND
1 1 2 1
2 1 23 1
3 1 24 1
4 1 25 1
5 2 3 1
6 2 26 1
7 2 27 1
8 3 4 1
9 3 28 1
10 3 29 1
11 4 5 1
12 4 30 1
13 4 31 1
14 5 6 1
15 5 32 1
16 5 33 1
17 6 7 1
18 6 34 1
19 6 35 1
20 7 8 1
21 7 36 1
22 7 37 1
23 8 9 1
24 8 38 1
25 8 39 1
26 9 10 1
27 9 40 1
28 9 41 1
29 10 11 1
30 10 42 1
31 10 43 1
32 11 12 1
33 11 44 1
34 11 45 1
35 12 13 1
36 12 46 1
37 12 47 1
38 13 14 1
39 13 48 1
40 13 49 1
41 14 15 1
42 14 50 1
43 14 51 1
44 15 16 1
45 15 52 1
46 15 53 1
47 16 17 1
48 16 54 1
49 16 55 1
50 17 18 1
51 17 56 1
52 17 57 1
53 18 22 1
54 18 58 1
55 18 59 1
56 19 20 1
57 19 21 1
58 19 114 1
59 20 60 1
60 20 61 1
61 20 62 1
62 21 63 1
63 21 64 1
64 21 65 1
65 19 22 1
66 66 101 1
67 66 167 1
68 67 68 1
69 67 100 1
70 67 128 1
71 68 115 2
72 68 116 1
73 69 70 1
74 69 88 1
75 69 129 1
76 70 71 1
77 70 130 1
78 70 131 1
79 71 72 1
80 71 90 1
81 71 117 1
82 72 80 1
83 72 118 1
84 72 133 1
85 73 74 1
86 73 119 2
87 74 75 1
88 74 79 2
89 75 76 2
90 75 134 1
91 76 77 1
92 76 135 1
93 77 78 2
94 77 136 1
95 78 79 1
96 78 137 1
97 79 138 1
98 80 81 1
99 80 97 1
100 80 139 1
101 81 82 1
102 81 83 1
103 81 93 1
104 82 140 1
105 82 141 1
106 82 142 1
107 83 84 1
108 83 120 2
109 84 87 1
110 84 121 1
111 84 143 1
112 85 86 1
113 85 122 2
114 86 144 1
115 86 145 1
116 86 146 1
117 87 88 2
118 87 90 1
119 88 89 1
120 89 147 1
121 89 148 1
122 89 149 1
123 90 91 1
124 90 92 1
125 91 150 1
126 91 151 1
127 91 152 1
128 92 153 1
129 92 154 1
130 92 155 1
131 93 94 1
132 93 123 1
133 93 156 1
134 94 95 1
135 94 158 1
136 94 159 1
137 95 97 1
138 95 124 1
139 95 160 1
140 96 97 1
141 96 161 1
142 96 162 1
143 97 125 1
144 98 99 1
145 98 126 2
146 99 163 1
147 99 164 1
148 99 165 1
149 66 100 1
150 100 108 1
151 100 166 1
152 101 102 1
153 101 127 2
154 102 103 1
155 102 107 2
156 103 104 2
157 103 168 1
158 104 105 1
159 104 169 1
160 105 106 2
161 105 170 1
162 106 107 1
163 106 171 1
164 107 172 1
165 108 109 1
166 108 113 2
167 109 110 2
168 109 173 1
169 110 111 1
170 110 174 1
171 111 112 2
172 111 175 1
173 112 113 1
174 112 176 1
175 113 177 1
176 67 114 1
177 69 116 1
178 117 132 1
179 73 118 1
180 85 121 1
181 123 157 1
182 96 124 1
183 98 125 1
@<TRIPOS>SUBSTRUCTURE
1	PTL1	1	GROUP	1 ****	PTL
2	PTX1	66	GROUP	1 ****	PTX
