@<TRIPOS>MOLECULE
PPT 
140 145 0 0 0
SMALL
USER_CHARGES
#CGenFF output mol2 file
@<TRIPOS>ATOM
1	C1     9.7390    -0.1920     0.2980	C.2	1	PPT1     0.0070
2	C2     9.4710    -1.9520     1.9020	C.3	1	PPT1     0.1400
3	C3     7.9970    -2.2520     1.7400	C.2	1	PPT1     0.0130
4	C4     7.0840    -1.6020     2.4800	C.2	1	PPT1    -0.1180
5	C5     5.7760    -1.8740     2.3530	C.2	1	PPT1    -0.1080
6	C6     5.3130    -2.7570     1.4480	C.2	1	PPT1     0.2380
7	C7     3.1960    -2.3800     0.4290	C.3	1	PPT1     0.3830
8	C8     0.8070    -2.3670     0.1920	C.3	1	PPT1     0.0360
9	C9    -0.3670    -3.3350     0.2490	C.3	1	PPT1    -0.0090
10	C10    -2.6860    -3.4670    -0.0140	C.3	1	PPT1    -0.0090
11	C11    -3.9340    -2.6220    -0.2750	C.3	1	PPT1    -0.1800
12	C12    -5.2140    -3.4710    -0.2210	C.3	1	PPT1    -0.1800
13	C13    -6.4820    -2.6260    -0.4230	C.3	1	PPT1    -0.1800
14	C14    -7.7560    -3.4830    -0.3470	C.3	1	PPT1    -0.1800
15	C15    -9.0330    -2.6410    -0.4980	C.3	1	PPT1    -0.1800
16	C16   -10.3020    -3.5060    -0.4050	C.3	1	PPT1    -0.1800
17	C17   -11.5850    -2.6660    -0.5140	C.3	1	PPT1    -0.1800
18	C18   -12.8480    -3.5370    -0.4080	C.3	1	PPT1    -0.1800
19	C19   -14.1350    -2.7000    -0.4840	C.3	1	PPT1    -0.1800
20	C20   -15.3940    -3.5760    -0.3700	C.3	1	PPT1    -0.1800
21	C21   -16.6850    -2.7420    -0.4210	C.3	1	PPT1    -0.1800
22	C22   -17.9410    -3.6210    -0.3030	C.3	1	PPT1    -0.1800
23	C23   -19.2330    -2.7890    -0.3380	C.3	1	PPT1    -0.1800
24	C24   -20.4870    -3.6700    -0.2200	C.3	1	PPT1    -0.1790
25	C25   -21.7800    -2.8380    -0.2460	C.3	1	PPT1    -0.1810
26	C26   -23.0340    -3.7190    -0.1280	C.3	1	PPT1    -0.1770
27	C27   -24.3220    -2.8860    -0.1500	C.3	1	PPT1    -0.2730
28	C28     3.1260    -0.9010     0.7930	C.3	1	PPT1    -0.2740
29	C29     3.7170    -2.5910    -0.9880	C.3	1	PPT1    -0.2740
30	C30     6.2470    -3.4590     0.7770	C.2	1	PPT1    -0.1080
31	C31     7.5580    -3.2000     0.8950	C.2	1	PPT1    -0.1180
32	O1     9.4600    -0.9690    -0.5960	O.2	1	PPT1    -0.3950
33	O2     9.7710    -0.6050     1.6030	O.3	1	PPT1    -0.1340
34	O3     3.9820    -3.0780     1.3750	O.3	1	PPT1    -0.4260
35	O4     1.9640    -3.0610     0.5850	O.3	1	PPT1    -0.4030
36	O5    -1.5510    -2.6370    -0.0530	O.3	1	PPT1    -0.3420
37	H1    10.1260    -2.6210     1.3010	H	1	PPT1     0.0900
38	H2     9.7510    -2.1170     2.9680	H	1	PPT1     0.0900
39	H3     7.4120    -0.8510     3.2170	H	1	PPT1     0.1150
40	H4     5.0610    -1.3490     3.0090	H	1	PPT1     0.1150
41	H5     0.6140    -1.5280     0.8990	H	1	PPT1     0.0900
42	H6     0.9240    -1.9790    -0.8450	H	1	PPT1     0.0900
43	H7    -0.2210    -4.1560    -0.4910	H	1	PPT1     0.0900
44	H8    -0.4470    -3.7690     1.2730	H	1	PPT1     0.0900
45	H9    -2.5910    -4.2590    -0.7930	H	1	PPT1     0.0900
46	H10    -2.7620    -3.9440     0.9910	H	1	PPT1     0.0900
47	H11    -3.9940    -1.8110     0.4890	H	1	PPT1     0.0900
48	H12    -3.8520    -2.1330    -1.2750	H	1	PPT1     0.0900
49	H13    -5.1660    -4.2640    -1.0050	H	1	PPT1     0.0900
50	H14    -5.2720    -3.9850     0.7690	H	1	PPT1     0.0900
51	H15    -6.5240    -1.8330     0.3610	H	1	PPT1     0.0900
52	H16    -6.4360    -2.1150    -1.4140	H	1	PPT1     0.0900
53	H17    -7.7280    -4.2610    -1.1470	H	1	PPT1     0.0900
54	H18    -7.7830    -4.0160     0.6340	H	1	PPT1     0.0900
55	H19    -9.0580    -1.8630     0.3010	H	1	PPT1     0.0900
56	H20    -9.0160    -2.1110    -1.4800	H	1	PPT1     0.0900
57	H21   -10.2880    -4.2700    -1.2180	H	1	PPT1     0.0900
58	H22   -10.3030    -4.0530     0.5680	H	1	PPT1     0.0900
59	H23   -11.5950    -1.9010     0.2990	H	1	PPT1     0.0900
60	H24   -11.5910    -2.1200    -1.4870	H	1	PPT1     0.0900
61	H25   -12.8470    -4.2910    -1.2300	H	1	PPT1     0.0900
62	H26   -12.8300    -4.0960     0.5580	H	1	PPT1     0.0900
63	H27   -14.1340    -1.9470     0.3400	H	1	PPT1     0.0900
64	H28   -14.1580    -2.1410    -1.4490	H	1	PPT1     0.0900
65	H29   -15.4020    -4.3220    -1.2000	H	1	PPT1     0.0900
66	H30   -15.3620    -4.1450     0.5900	H	1	PPT1     0.0900
67	H31   -16.6760    -1.9970     0.4100	H	1	PPT1     0.0900
68	H32   -16.7200    -2.1720    -1.3800	H	1	PPT1     0.0900
69	H33   -17.9540    -4.3600    -1.1390	H	1	PPT1     0.0900
70	H34   -17.9000    -4.1970     0.6510	H	1	PPT1     0.0900
71	H35   -19.2190    -2.0500     0.4980	H	1	PPT1     0.0900
72	H36   -19.2750    -2.2110    -1.2920	H	1	PPT1     0.0900
73	H37   -20.5030    -4.4040    -1.0600	H	1	PPT1     0.0900
74	H38   -20.4420    -4.2510     0.7320	H	1	PPT1     0.0900
75	H39   -21.7650    -2.1040     0.5950	H	1	PPT1     0.0900
76	H40   -21.8260    -2.2550    -1.1960	H	1	PPT1     0.0900
77	H41   -23.0560    -4.4520    -0.9700	H	1	PPT1     0.0900
78	H42   -22.9910    -4.3040     0.8220	H	1	PPT1     0.0900
79	H43   -25.2210    -3.5380    -0.0640	H	1	PPT1     0.0900
80	H44   -24.3470    -2.1620     0.6970	H	1	PPT1     0.0900
81	H45   -24.4110    -2.3090    -1.0980	H	1	PPT1     0.0900
82	H46     2.4900    -0.3210     0.0870	H	1	PPT1     0.0900
83	H47     4.1280    -0.4200     0.7340	H	1	PPT1     0.0900
84	H48     2.7390    -0.7480     1.8260	H	1	PPT1     0.0900
85	H49     3.8050    -3.6740    -1.2350	H	1	PPT1     0.0900
86	H50     3.0410    -2.1340    -1.7440	H	1	PPT1     0.0900
87	H51     4.7140    -2.1190    -1.1370	H	1	PPT1     0.0900
88	H52     5.9270    -4.2720     0.1040	H	1	PPT1     0.1150
89	H53     8.2790    -3.7870     0.3040	H	1	PPT1     0.1150
90	C32     8.8720     5.4340     1.4090	C.2	1	PPT1    -0.0490
91	C33    10.0030     4.4430     1.5760	C.3	1	PPT1     0.1850
92	C34     9.5800     3.3300     0.6290	C.3	1	PPT1     0.0010
93	C35    10.3200     2.0490     0.9840	C.3	1	PPT1     0.2040
94	C36    11.8190     2.3180     1.1340	C.2	1	PPT1    -0.0590
95	C37    12.6610     1.2630     1.1350	C.2	1	PPT1    -0.3430
96	C38    13.9770     1.4580     1.2690	C.2	1	PPT1     0.0990
97	C39    14.4720     2.6900     1.4030	C.2	1	PPT1     0.0990
98	C40    16.1070     1.3060     1.4460	C.3	1	PPT1     0.3920
99	C41    13.6580     3.7490     1.4100	C.2	1	PPT1    -0.3890
100	C42    12.3270     3.5690     1.2820	C.2	1	PPT1     0.0040
101	C43    11.4590     4.8240     1.2950	C.3	1	PPT1     0.0330
102	C44    11.6480     5.6340     0.0210	C.2	1	PPT1     0.0250
103	C45    11.8970     5.0640    -1.1640	C.2	1	PPT1    -0.1540
104	C46    12.0320     5.7810    -2.2930	C.2	1	PPT1     0.2210
105	C47    11.1930     4.7600    -4.2130	C.3	1	PPT1    -0.1010
106	C48    12.0180     7.1360    -2.2370	C.2	1	PPT1     0.2180
107	C49    11.7440     9.0830    -3.6710	C.3	1	PPT1    -0.1010
108	C50    11.7520     7.7510    -1.0550	C.2	1	PPT1     0.2210
109	C51    11.4890     9.7680     0.2480	C.3	1	PPT1    -0.1010
110	C52    11.5830     6.9740     0.0350	C.2	1	PPT1    -0.1540
111	C53     8.0690     3.3830     0.7840	C.3	1	PPT1     0.0830
112	O6     8.9130     6.6240     1.6300	O.co2	1	PPT1    -0.3190
113	O7    15.6950     2.6730     1.5100	O.3	1	PPT1    -0.2970
114	O8    14.8670     0.6130     1.2880	O.3	1	PPT1    -0.2970
115	O9    12.3300     5.1250    -3.4640	O.3	1	PPT1    -0.3890
116	O10    12.2110     7.7750    -3.4460	O.3	1	PPT1    -0.3890
117	O11    11.7000     9.1230    -0.9870	O.3	1	PPT1    -0.3890
118	O12    10.0200     1.1100    -0.0250	O.3	1	PPT1    -0.1230
119	O13     7.7710     4.7430     0.9940	O.3	1	PPT1    -0.2700
120	H54     9.9180     4.0860     2.6330	H	1	PPT1     0.0900
121	H55     9.8150     3.6190    -0.4240	H	1	PPT1     0.0900
122	H56     9.9440     1.7050     1.9740	H	1	PPT1     0.0900
123	H57    12.2930     0.2320     1.0300	H	1	PPT1     0.2800
124	H58    16.6150     0.9990     2.3900	H	1	PPT1     0.0900
125	H59    16.7720     1.1330     0.5680	H	1	PPT1     0.0900
126	H60    14.0850     4.7590     1.5200	H	1	PPT1     0.2800
127	H61    11.7970     5.4470     2.1610	H	1	PPT1     0.0900
128	H62    11.9890     3.9690    -1.2380	H	1	PPT1     0.1150
129	H63    11.5370     4.2450    -5.1370	H	1	PPT1     0.0900
130	H64    10.5560     4.0630    -3.6230	H	1	PPT1     0.0900
131	H65    10.6110     5.6660    -4.4950	H	1	PPT1     0.0900
132	H66    11.8160     9.2810    -4.7650	H	1	PPT1     0.0900
133	H67    10.6730     9.1710    -3.3800	H	1	PPT1     0.0900
134	H68    12.3950     9.8290    -3.1670	H	1	PPT1     0.0900
135	H69    11.4950    10.8650     0.0590	H	1	PPT1     0.0900
136	H70    10.4920     9.4990     0.6630	H	1	PPT1     0.0900
137	H71    12.3180     9.5380     0.9540	H	1	PPT1     0.0900
138	H72    11.3950     7.4320     1.0160	H	1	PPT1     0.1150
139	H73     7.5320     3.0160    -0.1200	H	1	PPT1     0.0900
140	H74     7.7240     2.8040     1.6710	H	1	PPT1     0.0900
@<TRIPOS>BOND
1	1	32	2
2	1	33	1
3	2	3	1
4	2	37	1
5	2	38	1
6	3	4	1
7	3	31	2
8	4	5	2
9	4	39	1
10	5	6	1
11	5	40	1
12	6	30	2
13	6	34	1
14	7	28	1
15	7	29	1
16	7	35	1
17	8	9	1
18	8	41	1
19	8	42	1
20	9	36	1
21	9	43	1
22	9	44	1
23	10	11	1
24	10	45	1
25	10	46	1
26	11	12	1
27	11	47	1
28	11	48	1
29	12	13	1
30	12	49	1
31	12	50	1
32	13	14	1
33	13	51	1
34	13	52	1
35	14	15	1
36	14	53	1
37	14	54	1
38	15	16	1
39	15	55	1
40	15	56	1
41	16	17	1
42	16	57	1
43	16	58	1
44	17	18	1
45	17	59	1
46	17	60	1
47	18	19	1
48	18	61	1
49	18	62	1
50	19	20	1
51	19	63	1
52	19	64	1
53	20	21	1
54	20	65	1
55	20	66	1
56	21	22	1
57	21	67	1
58	21	68	1
59	22	23	1
60	22	69	1
61	22	70	1
62	23	24	1
63	23	71	1
64	23	72	1
65	24	25	1
66	24	73	1
67	24	74	1
68	25	26	1
69	25	75	1
70	25	76	1
71	26	27	1
72	26	77	1
73	26	78	1
74	27	79	1
75	27	80	1
76	27	81	1
77	28	82	1
78	28	83	1
79	28	84	1
80	29	85	1
81	29	86	1
82	29	87	1
83	30	31	1
84	30	88	1
85	31	89	1
86	2	33	1
87	7	34	1
88	8	35	1
89	10	36	1
90	90	91	1
91	90	119	1
92	91	92	1
93	91	101	1
94	91	120	1
95	92	93	1
96	92	111	1
97	92	121	1
98	93	94	1
99	93	118	1
100	93	122	1
101	94	95	1
102	94	100	2
103	95	96	2
104	95	123	1
105	96	97	1
106	96	114	1
107	97	99	2
108	97	113	1
109	98	114	1
110	98	124	1
111	98	125	1
112	99	100	1
113	99	126	1
114	100	101	1
115	101	102	1
116	101	127	1
117	102	103	1
118	102	110	2
119	103	104	2
120	103	128	1
121	104	106	1
122	104	115	1
123	105	129	1
124	105	130	1
125	105	131	1
126	106	108	2
127	106	116	1
128	107	132	1
129	107	133	1
130	107	134	1
131	108	110	1
132	108	117	1
133	109	135	1
134	109	136	1
135	109	137	1
136	110	138	1
137	111	119	1
138	111	139	1
139	111	140	1
140	90	112	2
141	98	113	1
142	105	115	1
143	107	116	1
144	109	117	1
145	1	118	1
