@<TRIPOS>MOLECULE
DTX 
199 205 0 0 0
SMALL
USER_CHARGES
#CGenFF output mol2 file
@<TRIPOS>ATOM
1	C1    -0.0220     6.1360     1.6290	C.2	1	DTX1     0.0070
2	C2     1.3730     4.4710     2.6510	C.3	1	DTX1     0.1400
3	C3     1.3900     2.9680     2.8240	C.2	1	DTX1     0.0130
4	C4     0.4230     2.3560     3.5270	C.2	1	DTX1    -0.1180
5	C5     0.4120     1.0230     3.6660	C.2	1	DTX1    -0.1080
6	C6     1.3250     0.2330     3.0680	C.2	1	DTX1     0.2380
7	C7     2.3400     0.8680     2.4500	C.2	1	DTX1    -0.1080
8	C8     2.3630     2.2020     2.3030	C.2	1	DTX1    -0.1180
9	C9     0.6860    -1.9100     2.2700	C.3	1	DTX1     0.3830
10	C10    -0.7630    -1.4660     2.0910	C.3	1	DTX1    -0.2740
11	C11     1.4630    -1.8620     0.9580	C.3	1	DTX1    -0.2740
12	C12    -0.0980    -4.1700     2.3820	C.3	1	DTX1     0.0360
13	C13     0.3150    -5.5290     2.9310	C.3	1	DTX1    -0.0090
14	C14    10.0530   -26.4130    -0.5820	C.3	1	DTX1    -0.2730
15	C15     8.8780   -25.6690     0.0670	C.3	1	DTX1    -0.1770
16	C16     8.9050   -24.1660    -0.2530	C.3	1	DTX1    -0.1810
17	C17     7.7310   -23.4180     0.4000	C.3	1	DTX1    -0.1790
18	C18     7.7570   -21.9140     0.0790	C.3	1	DTX1    -0.1800
19	C19     6.5880   -21.1660     0.7420	C.3	1	DTX1    -0.1800
20	C20     6.6100   -19.6630     0.4210	C.3	1	DTX1    -0.1800
21	C21     5.4490   -18.9160     1.0960	C.3	1	DTX1    -0.1800
22	C22     5.4650   -17.4120     0.7760	C.3	1	DTX1    -0.1800
23	C23     4.3110   -16.6680     1.4660	C.3	1	DTX1    -0.1800
24	C24     4.3160   -15.1650     1.1440	C.3	1	DTX1    -0.1800
25	C25     3.1680   -14.4260     1.8500	C.3	1	DTX1    -0.1800
26	C26     3.1560   -12.9240     1.5200	C.3	1	DTX1    -0.1800
27	C27     2.0110   -12.1920     2.2390	C.3	1	DTX1    -0.1800
28	C28     1.9740   -10.6940     1.8960	C.3	1	DTX1    -0.1800
29	C29     0.8260    -9.9720     2.6210	C.3	1	DTX1    -0.1800
30	C30     0.7550    -8.4800     2.2550	C.3	1	DTX1    -0.1800
31	C31    -0.3900    -7.7800     2.9890	C.3	1	DTX1    -0.0090
32	O1     0.8090     6.9900     1.8710	O.2	1	DTX1    -0.3950
33	O2     0.1710     4.8390     2.0100	O.3	1	DTX1    -0.1340
34	O3     1.3270    -1.1260     3.2590	O.3	1	DTX1    -0.4260
35	O4     0.8070    -3.1990     2.8450	O.3	1	DTX1    -0.4030
36	O5    -0.6250    -6.4820     2.4990	O.3	1	DTX1    -0.3420
37	H1     2.2330     4.8070     2.0290	H	1	DTX1     0.0900
38	H2     1.4230     4.9630     3.6500	H	1	DTX1     0.0900
39	H3    -0.3710     2.9570     4.0020	H	1	DTX1     0.1150
40	H4    -0.3830     0.5600     4.2750	H	1	DTX1     0.1150
41	H5     3.1710     0.2750     2.0330	H	1	DTX1     0.1150
42	H6     3.1960     2.6670     1.7520	H	1	DTX1     0.1150
43	H7    -1.2950    -2.0630     1.3180	H	1	DTX1     0.0900
44	H8    -0.8330    -0.4170     1.7310	H	1	DTX1     0.0900
45	H9    -1.3350    -1.5320     3.0450	H	1	DTX1     0.0900
46	H10     2.5280    -2.1510     1.1040	H	1	DTX1     0.0900
47	H11     1.0320    -2.5500     0.1970	H	1	DTX1     0.0900
48	H12     1.4430    -0.8490     0.5020	H	1	DTX1     0.0900
49	H13    -1.1220    -3.9340     2.7530	H	1	DTX1     0.0900
50	H14    -0.0910    -4.2040     1.2700	H	1	DTX1     0.0900
51	H15     1.3270    -5.7930     2.5510	H	1	DTX1     0.0900
52	H16     0.3300    -5.4980     4.0450	H	1	DTX1     0.0900
53	H17    10.0190   -27.5000    -0.3420	H	1	DTX1     0.0900
54	H18    10.0290   -26.3090    -1.6910	H	1	DTX1     0.0900
55	H19    11.0280   -26.0160    -0.2210	H	1	DTX1     0.0900
56	H20     8.9170   -25.8170     1.1730	H	1	DTX1     0.0900
57	H21     7.9180   -26.1110    -0.2940	H	1	DTX1     0.0900
58	H22     8.8650   -24.0240    -1.3590	H	1	DTX1     0.0900
59	H23     9.8670   -23.7300     0.1060	H	1	DTX1     0.0900
60	H24     7.7730   -23.5600     1.5060	H	1	DTX1     0.0900
61	H25     6.7690   -23.8560     0.0430	H	1	DTX1     0.0900
62	H26     7.7090   -21.7710    -1.0260	H	1	DTX1     0.0900
63	H27     8.7220   -21.4780     0.4310	H	1	DTX1     0.0900
64	H28     6.6390   -21.3090     1.8470	H	1	DTX1     0.0900
65	H29     5.6230   -21.6040     0.3920	H	1	DTX1     0.0900
66	H30     6.5510   -19.5190    -0.6840	H	1	DTX1     0.0900
67	H31     7.5790   -19.2260     0.7630	H	1	DTX1     0.0900
68	H32     5.5120   -19.0590     2.2010	H	1	DTX1     0.0900
69	H33     4.4800   -19.3550     0.7580	H	1	DTX1     0.0900
70	H34     5.3910   -17.2690    -0.3290	H	1	DTX1     0.0900
71	H35     6.4370   -16.9740     1.1050	H	1	DTX1     0.0900
72	H36     4.3900   -16.8090     2.5710	H	1	DTX1     0.0900
73	H37     3.3390   -17.1120     1.1420	H	1	DTX1     0.0900
74	H38     4.2250   -15.0230     0.0400	H	1	DTX1     0.0900
75	H39     5.2900   -14.7210     1.4590	H	1	DTX1     0.0900
76	H40     3.2650   -14.5610     2.9530	H	1	DTX1     0.0900
77	H41     2.1940   -14.8780     1.5430	H	1	DTX1     0.0900
78	H42     3.0490   -12.7880     0.4180	H	1	DTX1     0.0900
79	H43     4.1300   -12.4700     1.8200	H	1	DTX1     0.0900
80	H44     2.1270   -12.3170     3.3410	H	1	DTX1     0.0900
81	H45     1.0380   -12.6590     1.9510	H	1	DTX1     0.0900
82	H46     1.8520   -10.5700     0.7940	H	1	DTX1     0.0900
83	H47     2.9460   -10.2240     2.1800	H	1	DTX1     0.0900
84	H48     0.9610   -10.0760     3.7240	H	1	DTX1     0.0900
85	H49    -0.1400   -10.4640     2.3550	H	1	DTX1     0.0900
86	H50     0.6080    -8.3780     1.1530	H	1	DTX1     0.0900
87	H51     1.7300    -8.0040     2.5120	H	1	DTX1     0.0900
88	H52    -0.2260    -7.7540     4.0900	H	1	DTX1     0.0900
89	H53    -1.3320    -8.3500     2.8110	H	1	DTX1     0.0900
90	N    -1.8060     6.0500    -1.6810	N.pl3	1	DTX1    -0.3660
91	C32    -5.4580     8.0400    -1.5520	C.2	1	DTX1    -0.1580
92	C33    -5.1680     7.5320    -0.1550	C.3	1	DTX1     0.2720
93	C34    -5.3120     8.6130     0.9240	C.3	1	DTX1    -0.2120
94	C35    -5.3530    10.0700     0.4230	C.3	1	DTX1     0.1860
95	C36    -6.4800    10.1190    -0.6390	C.3	1	DTX1     0.0160
96	C37    -5.9350     9.2800    -1.7820	C.2	1	DTX1    -0.0970
97	C38    -3.5420     6.1560     0.9140	C.2	1	DTX1     0.8440
98	C39    -2.1590     5.5310     0.6930	C.3	1	DTX1     0.2440
99	C40    -1.9870     4.9550    -0.7220	C.3	1	DTX1     0.1980
100	C41    -0.8260     3.9790    -0.7840	C.2	1	DTX1    -0.0400
101	C42    -1.8540     5.8670    -3.0340	C.2	1	DTX1     0.1760
102	C43    -5.0860     7.0860    -2.6640	C.3	1	DTX1    -0.2650
103	C44     0.4210     4.3670    -1.1060	C.2	1	DTX1    -0.1060
104	C45     1.4350     3.4890    -1.1440	C.2	1	DTX1    -0.1150
105	C46     1.2150     2.1960    -0.8610	C.2	1	DTX1    -0.1150
106	C47    -0.0210     1.7940    -0.5360	C.2	1	DTX1    -0.1150
107	C48    -1.0280     2.6800    -0.4940	C.2	1	DTX1    -0.1060
108	C49    -7.8200     9.4310    -0.2400	C.3	1	DTX1    -0.2690
109	C50    -6.9450    11.5670    -0.9390	C.3	1	DTX1    -0.2690
110	C51    -5.8870     9.8730    -3.1570	C.3	1	DTX1     0.3760
111	C52    -5.1350    11.1930    -3.1870	C.2	1	DTX1     0.3310
112	C53    -4.0180    10.7850     0.0010	C.3	1	DTX1     0.1330
113	C54    -3.7200    11.4280    -2.6010	C.3	1	DTX1     0.0810
114	C55    -3.2420    10.5730    -1.3550	C.3	1	DTX1    -0.0740
115	C56    -1.4210    11.5460    -3.6910	C.3	1	DTX1    -0.2010
116	C57    -2.8470    11.0410    -3.8140	C.3	1	DTX1     0.1660
117	C58    -0.7860    11.0230    -2.4130	C.3	1	DTX1     0.0150
118	C59    -1.6760    10.5660    -1.2340	C.3	1	DTX1     0.3660
119	C60    -1.0190    11.7810    -0.5520	C.3	1	DTX1    -0.1060
120	C61    -3.6030    12.9620    -2.3690	C.3	1	DTX1    -0.2630
121	C62    -2.5390    10.1110     1.8470	C.2	1	DTX1     0.4590
122	C63    -1.8780    10.4460     2.9970	C.2	1	DTX1     0.0860
123	C64    -1.8550    11.7290     3.4090	C.2	1	DTX1    -0.1100
124	C65    -1.2070    12.0810     4.5300	C.2	1	DTX1    -0.1140
125	C66    -0.5670    11.1540     5.2590	C.2	1	DTX1    -0.1150
126	C67    -0.5810     9.8750     4.8580	C.2	1	DTX1    -0.1140
127	C68    -1.2310     9.5240     3.7370	C.2	1	DTX1    -0.1100
128	C69     0.0250     8.8520    -0.8590	C.2	1	DTX1     0.8850
129	C70     1.1000     9.5040    -0.0090	C.3	1	DTX1    -0.3130
130	C71    -1.0040     6.8380    -5.0650	C.3	1	DTX1     0.2830
131	C72    -0.4520     8.2310    -5.4110	C.3	1	DTX1    -0.2690
132	C73     0.1690     5.8480    -5.0640	C.3	1	DTX1    -0.2690
133	C74    -2.0620     6.4630    -6.1100	C.3	1	DTX1    -0.2690
134	O6    -3.8840     6.9480    -0.1410	O.3	1	DTX1    -0.4320
135	O7    -4.2330     5.9400     1.8860	O.co2	1	DTX1    -0.6230
136	O8    -1.1590     6.4890     0.9540	O.3	1	DTX1    -0.1730
137	O9    -7.2030    10.0240    -3.6900	O.3	1	DTX1    -0.6120
138	O10    -5.6740    12.0640    -3.8380	O.2	1	DTX1    -0.5150
139	O11    -0.2040    12.0670    -1.6670	O.3	1	DTX1    -0.3430
140	O12    -3.3980    11.5240    -5.0250	O.3	1	DTX1    -0.6420
141	O13    -1.2310     9.3600    -0.6780	O.3	1	DTX1    -0.4220
142	O14    -3.1870    11.0600     1.1040	O.3	1	DTX1    -0.3100
143	O15    -2.5520     8.9620     1.4670	O.co2	1	DTX1    -0.4960
144	O16    -5.8130    10.8070     1.5350	O.3	1	DTX1    -0.4600
145	O17     0.2590     7.9110    -1.5830	O.co2	1	DTX1    -0.6170
146	O18    -1.5870     6.9590    -3.8030	O.3	1	DTX1    -0.2550
147	O19    -2.0680     4.7710    -3.4920	O.co2	1	DTX1    -0.3930
148	H54    -5.9030     6.7070     0.0210	H	1	DTX1     0.0900
149	H55    -6.2730     8.4090     1.4520	H	1	DTX1     0.0900
150	H56    -4.6500     8.4750     1.7970	H	1	DTX1     0.0900
151	H57    -2.1120     4.7000     1.4340	H	1	DTX1     0.0900
152	H58    -2.9290     4.4140    -0.9860	H	1	DTX1     0.0900
153	H59    -1.5700     6.9790    -1.3220	H	1	DTX1     0.2910
154	H60    -5.1500     6.0260    -2.3320	H	1	DTX1     0.0900
155	H61    -5.7730     7.1580    -3.5350	H	1	DTX1     0.0900
156	H62    -4.0480     7.2920    -3.0030	H	1	DTX1     0.0900
157	H63     0.6360     5.4210    -1.3360	H	1	DTX1     0.1150
158	H64     2.4510     3.8290    -1.4050	H	1	DTX1     0.1150
159	H65     2.0460     1.4720    -0.8900	H	1	DTX1     0.1150
160	H66    -0.2110     0.7340    -0.2990	H	1	DTX1     0.1150
161	H67    -2.0350     2.3280    -0.2160	H	1	DTX1     0.1150
162	H68    -8.2450     9.8570     0.6960	H	1	DTX1     0.0900
163	H69    -8.5900     9.5630    -1.0350	H	1	DTX1     0.0900
164	H70    -7.7630     8.3300    -0.1080	H	1	DTX1     0.0900
165	H71    -6.1410    12.2690    -1.2190	H	1	DTX1     0.0900
166	H72    -7.7040    11.6180    -1.7500	H	1	DTX1     0.0900
167	H73    -7.4260    12.0290    -0.0480	H	1	DTX1     0.0900
168	H74    -5.3250     9.2570    -3.8920	H	1	DTX1     0.0900
169	H75    -4.3900    11.8230    -0.1820	H	1	DTX1     0.0900
170	H76    -7.2360    10.8400    -4.1970	H	1	DTX1     0.3640
171	H77    -3.4510     9.5140    -1.6400	H	1	DTX1     0.0900
172	H78    -1.3880    12.6560    -3.7500	H	1	DTX1     0.0900
173	H79    -0.8260    11.2100    -4.5740	H	1	DTX1     0.0900
174	H80    -2.8240     9.9280    -3.9080	H	1	DTX1     0.0900
175	H81     0.0180    10.3070    -2.6900	H	1	DTX1     0.0900
176	H82    -0.3970    11.5760     0.3410	H	1	DTX1     0.0900
177	H83    -1.6770    12.6450    -0.3340	H	1	DTX1     0.0900
178	H84    -4.3600    13.3620    -1.6630	H	1	DTX1     0.0900
179	H85    -2.6250    13.2850    -1.9740	H	1	DTX1     0.0900
180	H86    -3.7110    13.5530    -3.3050	H	1	DTX1     0.0900
181	H87    -4.0370    12.2290    -4.8750	H	1	DTX1     0.4000
182	H88    -2.3600    12.5300     2.8440	H	1	DTX1     0.1150
183	H89    -1.1960    13.1350     4.8550	H	1	DTX1     0.1150
184	H90    -0.0330    11.4430     6.1790	H	1	DTX1     0.1150
185	H91    -0.0540     9.1090     5.4530	H	1	DTX1     0.1150
186	H92    -1.2040     8.4580     3.4580	H	1	DTX1     0.1150
187	H93    -6.6530    10.4710     1.8490	H	1	DTX1     0.2920
188	H94     1.5100    10.4130    -0.4990	H	1	DTX1     0.0900
189	H95     0.7300     9.7470     1.0120	H	1	DTX1     0.0900
190	H96     1.9580     8.8050     0.1170	H	1	DTX1     0.0900
191	H97     0.0530     8.2410    -6.4030	H	1	DTX1     0.0900
192	H98    -1.2690     8.9840    -5.4540	H	1	DTX1     0.0900
193	H99     0.2880     8.5760    -4.6530	H	1	DTX1     0.0900
194	H100     0.7460     5.9180    -6.0140	H	1	DTX1     0.0900
195	H101    -0.1430     4.7850    -4.9840	H	1	DTX1     0.0900
196	H102     0.8740     6.0620    -4.2290	H	1	DTX1     0.0900
197	H103    -2.9210     7.1720    -6.0870	H	1	DTX1     0.0900
198	H104    -1.6310     6.4860    -7.1360	H	1	DTX1     0.0900
199	H105    -2.4720     5.4410    -5.9600	H	1	DTX1     0.0900
@<TRIPOS>BOND
1	1	32	2
2	1	33	1
3	2	3	1
4	2	37	1
5	2	38	1
6	3	4	1
7	3	8	2
8	4	5	2
9	4	39	1
10	5	6	1
11	5	40	1
12	6	7	2
13	6	34	1
14	7	8	1
15	7	41	1
16	8	42	1
17	9	10	1
18	9	11	1
19	9	35	1
20	10	43	1
21	10	44	1
22	10	45	1
23	11	46	1
24	11	47	1
25	11	48	1
26	12	13	1
27	12	49	1
28	12	50	1
29	13	36	1
30	13	51	1
31	13	52	1
32	14	15	1
33	14	53	1
34	14	54	1
35	14	55	1
36	15	16	1
37	15	56	1
38	15	57	1
39	16	17	1
40	16	58	1
41	16	59	1
42	17	18	1
43	17	60	1
44	17	61	1
45	18	19	1
46	18	62	1
47	18	63	1
48	19	20	1
49	19	64	1
50	19	65	1
51	20	21	1
52	20	66	1
53	20	67	1
54	21	22	1
55	21	68	1
56	21	69	1
57	22	23	1
58	22	70	1
59	22	71	1
60	23	24	1
61	23	72	1
62	23	73	1
63	24	25	1
64	24	74	1
65	24	75	1
66	25	26	1
67	25	76	1
68	25	77	1
69	26	27	1
70	26	78	1
71	26	79	1
72	27	28	1
73	27	80	1
74	27	81	1
75	28	29	1
76	28	82	1
77	28	83	1
78	29	30	1
79	29	84	1
80	29	85	1
81	30	31	1
82	30	86	1
83	30	87	1
84	31	88	1
85	31	89	1
86	2	33	1
87	9	34	1
88	12	35	1
89	31	36	1
90	90	101	1
91	90	153	1
92	91	92	1
93	91	96	2
94	91	102	1
95	92	93	1
96	92	134	1
97	92	148	1
98	93	94	1
99	93	149	1
100	93	150	1
101	94	95	1
102	94	112	1
103	94	144	1
104	95	96	1
105	95	108	1
106	95	109	1
107	96	110	1
108	97	98	1
109	97	135	2
110	98	99	1
111	98	136	1
112	98	151	1
113	90	99	1
114	99	100	1
115	99	152	1
116	100	103	1
117	100	107	2
118	101	146	1
119	101	147	2
120	102	154	1
121	102	155	1
122	102	156	1
123	103	104	2
124	103	157	1
125	104	105	1
126	104	158	1
127	105	106	2
128	105	159	1
129	106	107	1
130	106	160	1
131	107	161	1
132	108	162	1
133	108	163	1
134	108	164	1
135	109	165	1
136	109	166	1
137	109	167	1
138	110	111	1
139	110	137	1
140	110	168	1
141	111	113	1
142	111	138	2
143	112	114	1
144	112	142	1
145	112	169	1
146	113	114	1
147	113	116	1
148	113	120	1
149	114	118	1
150	114	171	1
151	115	116	1
152	115	117	1
153	115	172	1
154	115	173	1
155	116	140	1
156	116	174	1
157	117	118	1
158	117	139	1
159	117	175	1
160	118	119	1
161	118	141	1
162	119	139	1
163	119	176	1
164	119	177	1
165	120	178	1
166	120	179	1
167	120	180	1
168	121	122	1
169	121	143	2
170	122	123	1
171	122	127	2
172	123	124	2
173	123	182	1
174	124	125	1
175	124	183	1
176	125	126	2
177	125	184	1
178	126	127	1
179	126	185	1
180	127	186	1
181	128	129	1
182	128	145	2
183	129	188	1
184	129	189	1
185	129	190	1
186	130	131	1
187	130	132	1
188	130	133	1
189	131	191	1
190	131	192	1
191	131	193	1
192	132	194	1
193	132	195	1
194	132	196	1
195	133	197	1
196	133	198	1
197	133	199	1
198	97	134	1
199	1	136	1
200	137	170	1
201	140	181	1
202	128	141	1
203	121	142	1
204	144	187	1
205	130	146	1
