# created with PyMOL 2.5.4
@<TRIPOS>MOLECULE
PPT
116 120 2               
SMALL
USER_CHARGES
@<TRIPOS>ATOM
1	   C	-9.372	16.451	-0.284	C.3	1	PPL1	0.000	
2	   C	-9.357	15.037	0.311	C.3	1	PPL1	0.000	
3	   C	-8.167	14.212	-0.205	C.3	1	PPL1	0.000	
4	   C	-8.150	12.793	0.387	C.3	1	PPL1	0.000	
5	   C	-6.964	11.966	-0.136	C.3	1	PPL1	0.000	
6	   C	-6.953	10.544	0.447	C.3	1	PPL1	0.000	
7	   C	-5.777	9.712	-0.091	C.3	1	PPL1	0.000	
8	   C	-5.775	8.282	0.475	C.3	1	PPL1	0.000	
9	   C	-4.617	7.443	-0.088	C.3	1	PPL1	0.000	
10	   C	-4.631	6.004	0.454	C.3	1	PPL1	0.000	
11	   C	-3.497	5.154	-0.143	C.3	1	PPL1	0.000	
12	   C	-3.533	3.704	0.366	C.3	1	PPL1	0.000	
13	   C	-2.431	2.844	-0.273	C.3	1	PPL1	0.000	
14	   C	-2.492	1.382	0.199	C.3	1	PPL1	0.000	
15	   C	-1.427	0.512	-0.489	C.3	1	PPL1	0.000	
16	   C	-1.516	-0.960	-0.056	C.3	1	PPL1	0.000	
17	   C	-0.492	-1.837	-0.794	C.3	1	PPL1	0.000	
18	   C	-0.603	-3.309	-0.394	C.3	1	PPL1	0.000	
19	   C	0.517	-5.383	-0.779	C.3	1	PPL1	0.000	
20	   C	-0.754	-6.081	-0.282	C.3	1	PPL1	0.000	
21	   C	0.984	-6.176	-2.003	C.3	1	PPL1	0.000	
22	   O	0.299	-4.053	-1.175	O.3	1	PPL1	0.000	
23	   H	-10.239	17.037	0.098	 H	1	PPL1	0.000	
24	   H	-8.444	17.008	-0.020	 H	1	PPL1	0.000	
25	   H	-9.448	16.419	-1.395	 H	1	PPL1	0.000	
26	   H	-10.311	14.520	0.051	 H	1	PPL1	0.000	
27	   H	-9.309	15.107	1.424	 H	1	PPL1	0.000	
28	   H	-7.216	14.734	0.056	 H	1	PPL1	0.000	
29	   H	-8.218	14.149	-1.318	 H	1	PPL1	0.000	
30	   H	-9.104	12.275	0.128	 H	1	PPL1	0.000	
31	   H	-8.095	12.856	1.499	 H	1	PPL1	0.000	
32	   H	-6.009	12.481	0.126	 H	1	PPL1	0.000	
33	   H	-7.018	11.909	-1.249	 H	1	PPL1	0.000	
34	   H	-7.912	10.034	0.191	 H	1	PPL1	0.000	
35	   H	-6.889	10.599	1.559	 H	1	PPL1	0.000	
36	   H	-4.816	10.215	0.171	 H	1	PPL1	0.000	
37	   H	-5.838	9.667	-1.205	 H	1	PPL1	0.000	
38	   H	-6.744	7.787	0.225	 H	1	PPL1	0.000	
39	   H	-5.698	8.323	1.587	 H	1	PPL1	0.000	
40	   H	-3.646	7.927	0.172	 H	1	PPL1	0.000	
41	   H	-4.690	7.417	-1.201	 H	1	PPL1	0.000	
42	   H	-5.612	5.530	0.211	 H	1	PPL1	0.000	
43	   H	-4.536	6.023	1.565	 H	1	PPL1	0.000	
44	   H	-2.513	5.614	0.112	 H	1	PPL1	0.000	
45	   H	-3.587	5.154	-1.256	 H	1	PPL1	0.000	
46	   H	-4.529	3.257	0.132	 H	1	PPL1	0.000	
47	   H	-3.416	3.695	1.476	 H	1	PPL1	0.000	
48	   H	-1.431	3.273	-0.025	 H	1	PPL1	0.000	
49	   H	-2.541	2.875	-1.384	 H	1	PPL1	0.000	
50	   H	-3.504	0.967	-0.024	 H	1	PPL1	0.000	
51	   H	-2.350	1.341	1.305	 H	1	PPL1	0.000	
52	   H	-0.411	0.909	-0.252	 H	1	PPL1	0.000	
53	   H	-1.560	0.577	-1.595	 H	1	PPL1	0.000	
54	   H	-2.544	-1.343	-0.265	 H	1	PPL1	0.000	
55	   H	-1.349	-1.037	1.045	 H	1	PPL1	0.000	
56	   H	0.538	-1.467	-0.573	 H	1	PPL1	0.000	
57	   H	-0.650	-1.743	-1.895	 H	1	PPL1	0.000	
58	   H	-1.641	-3.658	-0.597	 H	1	PPL1	0.000	
59	   H	-0.369	-3.424	0.689	 H	1	PPL1	0.000	
60	   H	-0.564	-7.161	-0.086	 H	1	PPL1	0.000	
61	   H	-1.577	-6.025	-1.031	 H	1	PPL1	0.000	
62	   H	-1.126	-5.668	0.682	 H	1	PPL1	0.000	
63	   H	1.908	-5.777	-2.466	 H	1	PPL1	0.000	
64	   H	1.192	-7.239	-1.745	 H	1	PPL1	0.000	
65	   H	0.207	-6.173	-2.801	 H	1	PPL1	0.000	
66	   C	2.431	-4.461	0.461	C.3	2	PPT1	0.000	
67	   C	3.129	-4.804	1.788	C.2	2	PPT1	0.000	
68	   C	2.339	-5.002	2.865	C.2	2	PPT1	0.000	
69	   C	2.882	-5.338	4.039	C.2	2	PPT1	0.000	
70	   C	3.308	-5.888	6.067	C.3	2	PPT1	0.000	
71	   C	4.203	-5.481	4.163	C.2	2	PPT1	0.000	
72	   C	5.008	-5.277	3.115	C.2	2	PPT1	0.000	
73	   C	4.473	-4.929	1.927	C.2	2	PPT1	0.000	
74	   C	5.427	-4.681	0.771	C.3	2	PPT1	0.000	
75	   C	5.892	-5.971	0.117	C.2	2	PPT1	0.000	
76	   C	5.124	-7.070	0.068	C.2	2	PPT1	0.000	
77	   C	5.515	-8.199	-0.549	C.2	2	PPT1	0.000	
78	   C	3.893	-9.422	-1.686	C.3	2	PPT1	0.000	
79	   C	6.777	-8.271	-1.030	C.2	2	PPT1	0.000	
80	   C	7.863	-10.322	-0.789	C.3	2	PPT1	0.000	
81	   C	7.565	-7.171	-1.048	C.2	2	PPT1	0.000	
82	   C	9.663	-6.157	-1.641	C.3	2	PPT1	0.000	
83	   C	7.101	-6.052	-0.460	C.2	2	PPT1	0.000	
84	   C	4.728	-3.701	-0.171	C.3	2	PPT1	0.000	
85	   C	5.401	-3.234	-1.442	C.2	2	PPT1	0.000	
86	   C	3.152	-3.300	-1.814	C.3	2	PPT1	0.000	
87	   C	3.423	-4.296	-0.689	C.3	2	PPT1	0.000	
88	   O	1.483	-5.492	0.242	O.3	2	PPT1	0.000	
89	   O	2.307	-5.558	5.102	O.3	2	PPT1	0.000	
90	   O	4.515	-5.795	5.308	O.3	2	PPT1	0.000	
91	   O	4.695	-9.301	-0.533	O.3	2	PPT1	0.000	
92	   O	7.201	-9.424	-1.650	O.3	2	PPT1	0.000	
93	   O	8.806	-7.275	-1.636	O.3	2	PPT1	0.000	
94	   O	6.588	-3.088	-1.629	O.co2	2	PPT1	0.000	
95	   O	4.415	-2.969	-2.342	O.3	2	PPT1	0.000	
96	   H	1.920	-3.492	0.655	 H	2	PPT1	0.000	
97	   H	1.244	-4.897	2.796	 H	2	PPT1	0.000	
98	   H	3.160	-6.924	6.451	 H	2	PPT1	0.000	
99	   H	3.309	-5.154	6.905	 H	2	PPT1	0.000	
100	   H	6.096	-5.392	3.237	 H	2	PPT1	0.000	
101	   H	6.323	-4.149	1.179	 H	2	PPT1	0.000	
102	   H	4.123	-7.062	0.529	 H	2	PPT1	0.000	
103	   H	3.254	-10.325	-1.571	 H	2	PPT1	0.000	
104	   H	3.243	-8.524	-1.790	 H	2	PPT1	0.000	
105	   H	4.532	-9.539	-2.589	 H	2	PPT1	0.000	
106	   H	8.161	-11.215	-1.382	 H	2	PPT1	0.000	
107	   H	8.775	-9.845	-0.366	 H	2	PPT1	0.000	
108	   H	7.181	-10.641	0.031	 H	2	PPT1	0.000	
109	   H	10.601	-6.452	-2.164	 H	2	PPT1	0.000	
110	   H	9.203	-5.317	-2.208	 H	2	PPT1	0.000	
111	   H	9.927	-5.865	-0.600	 H	2	PPT1	0.000	
112	   H	7.727	-5.149	-0.424	 H	2	PPT1	0.000	
113	   H	4.516	-2.754	0.390	 H	2	PPT1	0.000	
114	   H	2.521	-3.700	-2.635	 H	2	PPT1	0.000	
115	   H	2.683	-2.365	-1.430	 H	2	PPT1	0.000	
116	   H	3.649	-5.288	-1.144	 H	2	PPT1	0.000	
@<TRIPOS>BOND
1 1 2 1
2 1 23 1
3 1 24 1
4 1 25 1
5 2 3 1
6 2 26 1
7 2 27 1
8 3 4 1
9 3 28 1
10 3 29 1
11 4 5 1
12 4 30 1
13 4 31 1
14 5 6 1
15 5 32 1
16 5 33 1
17 6 7 1
18 6 34 1
19 6 35 1
20 7 8 1
21 7 36 1
22 7 37 1
23 8 9 1
24 8 38 1
25 8 39 1
26 9 10 1
27 9 40 1
28 9 41 1
29 10 11 1
30 10 42 1
31 10 43 1
32 11 12 1
33 11 44 1
34 11 45 1
35 12 13 1
36 12 46 1
37 12 47 1
38 13 14 1
39 13 48 1
40 13 49 1
41 14 15 1
42 14 50 1
43 14 51 1
44 15 16 1
45 15 52 1
46 15 53 1
47 16 17 1
48 16 54 1
49 16 55 1
50 17 18 1
51 17 56 1
52 17 57 1
53 18 22 1
54 18 58 1
55 18 59 1
56 19 20 1
57 19 21 1
58 19 88 1
59 20 60 1
60 20 61 1
61 20 62 1
62 21 63 1
63 21 64 1
64 21 65 1
65 19 22 1
66 66 67 1
67 66 87 1
68 66 96 1
69 67 68 2
70 67 73 1
71 68 69 1
72 68 97 1
73 69 71 2
74 69 89 1
75 70 90 1
76 70 98 1
77 70 99 1
78 71 72 1
79 72 73 2
80 72 100 1
81 73 74 1
82 74 75 1
83 74 84 1
84 74 101 1
85 75 76 1
86 75 83 2
87 76 77 2
88 76 102 1
89 77 79 1
90 77 91 1
91 78 103 1
92 78 104 1
93 78 105 1
94 79 81 2
95 79 92 1
96 80 106 1
97 80 107 1
98 80 108 1
99 81 83 1
100 81 93 1
101 82 109 1
102 82 110 1
103 82 111 1
104 83 112 1
105 84 85 1
106 84 87 1
107 84 113 1
108 85 94 2
109 85 95 1
110 86 87 1
111 86 114 1
112 86 115 1
113 87 116 1
114 66 88 1
115 70 89 1
116 71 90 1
117 78 91 1
118 80 92 1
119 82 93 1
120 86 95 1
@<TRIPOS>SUBSTRUCTURE
1	PPL1	1	GROUP	1 ****	PPL
2	PPT1	66	GROUP	1 ****	PPT
