@<TRIPOS>MOLECULE
PPT 
116 120 0 0 0
SMALL
USER_CHARGES
#CGenFF output mol2 file
@<TRIPOS>ATOM
1	C1    -9.3720    16.4510    -0.2840	C.3	1	PPT1    -0.2730
2	C2    -9.3570    15.0370     0.3110	C.3	1	PPT1    -0.1770
3	C3    -8.1670    14.2120    -0.2050	C.3	1	PPT1    -0.1810
4	C4    -8.1500    12.7930     0.3870	C.3	1	PPT1    -0.1790
5	C5    -6.9640    11.9660    -0.1360	C.3	1	PPT1    -0.1800
6	C6    -6.9530    10.5440     0.4470	C.3	1	PPT1    -0.1800
7	C7    -5.7770     9.7120    -0.0910	C.3	1	PPT1    -0.1800
8	C8    -5.7750     8.2820     0.4750	C.3	1	PPT1    -0.1800
9	C9    -4.6170     7.4430    -0.0880	C.3	1	PPT1    -0.1800
10	C10    -4.6310     6.0040     0.4540	C.3	1	PPT1    -0.1800
11	C11    -3.4970     5.1540    -0.1430	C.3	1	PPT1    -0.1800
12	C12    -3.5330     3.7040     0.3660	C.3	1	PPT1    -0.1800
13	C13    -2.4310     2.8440    -0.2730	C.3	1	PPT1    -0.1800
14	C14    -2.4920     1.3820     0.1990	C.3	1	PPT1    -0.1800
15	C15    -1.4270     0.5120    -0.4890	C.3	1	PPT1    -0.1800
16	C16    -1.5160    -0.9600    -0.0560	C.3	1	PPT1    -0.1800
17	C17    -0.4920    -1.8370    -0.7940	C.3	1	PPT1    -0.1800
18	C18    -0.6030    -3.3090    -0.3940	C.3	1	PPT1     0.0360
19	C19     0.5170    -5.3830    -0.7790	C.3	1	PPT1     0.3800
20	C20    -0.7540    -6.0810    -0.2820	C.3	1	PPT1    -0.2690
21	C21     0.9840    -6.1760    -2.0030	C.3	1	PPT1    -0.2690
22	O1     0.2990    -4.0530    -1.1750	O.3	1	PPT1    -0.4020
23	H1   -10.2390    17.0370     0.0980	H	1	PPT1     0.0900
24	H2    -8.4440    17.0080    -0.0200	H	1	PPT1     0.0900
25	H3    -9.4480    16.4190    -1.3950	H	1	PPT1     0.0900
26	H4   -10.3110    14.5200     0.0510	H	1	PPT1     0.0900
27	H5    -9.3090    15.1070     1.4240	H	1	PPT1     0.0900
28	H6    -7.2160    14.7340     0.0560	H	1	PPT1     0.0900
29	H7    -8.2180    14.1490    -1.3180	H	1	PPT1     0.0900
30	H8    -9.1040    12.2750     0.1280	H	1	PPT1     0.0900
31	H9    -8.0950    12.8560     1.4990	H	1	PPT1     0.0900
32	H10    -6.0090    12.4810     0.1260	H	1	PPT1     0.0900
33	H11    -7.0180    11.9090    -1.2490	H	1	PPT1     0.0900
34	H12    -7.9120    10.0340     0.1910	H	1	PPT1     0.0900
35	H13    -6.8890    10.5990     1.5590	H	1	PPT1     0.0900
36	H14    -4.8160    10.2150     0.1710	H	1	PPT1     0.0900
37	H15    -5.8380     9.6670    -1.2050	H	1	PPT1     0.0900
38	H16    -6.7440     7.7870     0.2250	H	1	PPT1     0.0900
39	H17    -5.6980     8.3230     1.5870	H	1	PPT1     0.0900
40	H18    -3.6460     7.9270     0.1720	H	1	PPT1     0.0900
41	H19    -4.6900     7.4170    -1.2010	H	1	PPT1     0.0900
42	H20    -5.6120     5.5300     0.2110	H	1	PPT1     0.0900
43	H21    -4.5360     6.0230     1.5650	H	1	PPT1     0.0900
44	H22    -2.5130     5.6140     0.1120	H	1	PPT1     0.0900
45	H23    -3.5870     5.1540    -1.2560	H	1	PPT1     0.0900
46	H24    -4.5290     3.2570     0.1320	H	1	PPT1     0.0900
47	H25    -3.4160     3.6950     1.4760	H	1	PPT1     0.0900
48	H26    -1.4310     3.2730    -0.0250	H	1	PPT1     0.0900
49	H27    -2.5410     2.8750    -1.3840	H	1	PPT1     0.0900
50	H28    -3.5040     0.9670    -0.0240	H	1	PPT1     0.0900
51	H29    -2.3500     1.3410     1.3050	H	1	PPT1     0.0900
52	H30    -0.4110     0.9090    -0.2520	H	1	PPT1     0.0900
53	H31    -1.5600     0.5770    -1.5950	H	1	PPT1     0.0900
54	H32    -2.5440    -1.3430    -0.2650	H	1	PPT1     0.0900
55	H33    -1.3490    -1.0370     1.0450	H	1	PPT1     0.0900
56	H34     0.5380    -1.4670    -0.5730	H	1	PPT1     0.0900
57	H35    -0.6500    -1.7430    -1.8950	H	1	PPT1     0.0900
58	H36    -1.6410    -3.6580    -0.5970	H	1	PPT1     0.0900
59	H37    -0.3690    -3.4240     0.6890	H	1	PPT1     0.0900
60	H38    -0.5640    -7.1610    -0.0860	H	1	PPT1     0.0900
61	H39    -1.5770    -6.0250    -1.0310	H	1	PPT1     0.0900
62	H40    -1.1260    -5.6680     0.6820	H	1	PPT1     0.0900
63	H41     1.9080    -5.7770    -2.4660	H	1	PPT1     0.0900
64	H42     1.1920    -7.2390    -1.7450	H	1	PPT1     0.0900
65	H43     0.2070    -6.1730    -2.8010	H	1	PPT1     0.0900
66	C22     2.4310    -4.4610     0.4610	C.3	1	PPT1     0.1320
67	C23     3.1290    -4.8040     1.7880	C.2	1	PPT1    -0.0590
68	C24     2.3390    -5.0020     2.8650	C.2	1	PPT1    -0.3430
69	C25     2.8820    -5.3380     4.0390	C.2	1	PPT1     0.0990
70	C26     3.3080    -5.8880     6.0670	C.3	1	PPT1     0.3920
71	C27     4.2030    -5.4810     4.1630	C.2	1	PPT1     0.0990
72	C28     5.0080    -5.2770     3.1150	C.2	1	PPT1    -0.3890
73	C29     4.4730    -4.9290     1.9270	C.2	1	PPT1     0.0040
74	C30     5.4270    -4.6810     0.7710	C.3	1	PPT1     0.0330
75	C31     5.8920    -5.9710     0.1170	C.2	1	PPT1     0.0250
76	C32     5.1240    -7.0700     0.0680	C.2	1	PPT1    -0.1540
77	C33     5.5150    -8.1990    -0.5490	C.2	1	PPT1     0.2210
78	C34     3.8930    -9.4220    -1.6860	C.3	1	PPT1    -0.1010
79	C35     6.7770    -8.2710    -1.0300	C.2	1	PPT1     0.2180
80	C36     7.8630   -10.3220    -0.7890	C.3	1	PPT1    -0.1010
81	C37     7.5650    -7.1710    -1.0480	C.2	1	PPT1     0.2210
82	C38     9.6630    -6.1570    -1.6410	C.3	1	PPT1    -0.1010
83	C39     7.1010    -6.0520    -0.4600	C.2	1	PPT1    -0.1540
84	C40     4.7280    -3.7010    -0.1710	C.3	1	PPT1     0.1850
85	C41     5.4010    -3.2340    -1.4420	C.2	1	PPT1    -0.0490
86	C42     3.1520    -3.3000    -1.8140	C.3	1	PPT1     0.0830
87	C43     3.4230    -4.2960    -0.6890	C.3	1	PPT1     0.0040
88	O2     1.4830    -5.4920     0.2420	O.3	1	PPT1    -0.4310
89	O3     2.3070    -5.5580     5.1020	O.3	1	PPT1    -0.2970
90	O4     4.5150    -5.7950     5.3080	O.3	1	PPT1    -0.2970
91	O5     4.6950    -9.3010    -0.5330	O.3	1	PPT1    -0.3890
92	O6     7.2010    -9.4240    -1.6500	O.3	1	PPT1    -0.3890
93	O7     8.8060    -7.2750    -1.6360	O.3	1	PPT1    -0.3890
94	O8     6.5880    -3.0880    -1.6290	O.co2	1	PPT1    -0.3190
95	O9     4.4150    -2.9690    -2.3420	O.3	1	PPT1    -0.2700
96	H44     1.9200    -3.4920     0.6550	H	1	PPT1     0.0900
97	H45     1.2440    -4.8970     2.7960	H	1	PPT1     0.2800
98	H46     3.1600    -6.9240     6.4510	H	1	PPT1     0.0900
99	H47     3.3090    -5.1540     6.9050	H	1	PPT1     0.0900
100	H48     6.0960    -5.3920     3.2370	H	1	PPT1     0.2800
101	H49     6.3230    -4.1490     1.1790	H	1	PPT1     0.0900
102	H50     4.1230    -7.0620     0.5290	H	1	PPT1     0.1150
103	H51     3.2540   -10.3250    -1.5710	H	1	PPT1     0.0900
104	H52     3.2430    -8.5240    -1.7900	H	1	PPT1     0.0900
105	H53     4.5320    -9.5390    -2.5890	H	1	PPT1     0.0900
106	H54     8.1610   -11.2150    -1.3820	H	1	PPT1     0.0900
107	H55     8.7750    -9.8450    -0.3660	H	1	PPT1     0.0900
108	H56     7.1810   -10.6410     0.0310	H	1	PPT1     0.0900
109	H57    10.6010    -6.4520    -2.1640	H	1	PPT1     0.0900
110	H58     9.2030    -5.3170    -2.2080	H	1	PPT1     0.0900
111	H59     9.9270    -5.8650    -0.6000	H	1	PPT1     0.0900
112	H60     7.7270    -5.1490    -0.4240	H	1	PPT1     0.1150
113	H61     4.5160    -2.7540     0.3900	H	1	PPT1     0.0900
114	H62     2.5210    -3.7000    -2.6350	H	1	PPT1     0.0900
115	H63     2.6830    -2.3650    -1.4300	H	1	PPT1     0.0900
116	H64     3.6490    -5.2880    -1.1440	H	1	PPT1     0.0900
@<TRIPOS>BOND
1	1	2	1
2	1	23	1
3	1	24	1
4	1	25	1
5	2	3	1
6	2	26	1
7	2	27	1
8	3	4	1
9	3	28	1
10	3	29	1
11	4	5	1
12	4	30	1
13	4	31	1
14	5	6	1
15	5	32	1
16	5	33	1
17	6	7	1
18	6	34	1
19	6	35	1
20	7	8	1
21	7	36	1
22	7	37	1
23	8	9	1
24	8	38	1
25	8	39	1
26	9	10	1
27	9	40	1
28	9	41	1
29	10	11	1
30	10	42	1
31	10	43	1
32	11	12	1
33	11	44	1
34	11	45	1
35	12	13	1
36	12	46	1
37	12	47	1
38	13	14	1
39	13	48	1
40	13	49	1
41	14	15	1
42	14	50	1
43	14	51	1
44	15	16	1
45	15	52	1
46	15	53	1
47	16	17	1
48	16	54	1
49	16	55	1
50	17	18	1
51	17	56	1
52	17	57	1
53	18	22	1
54	18	58	1
55	18	59	1
56	19	20	1
57	19	21	1
58	19	88	1
59	20	60	1
60	20	61	1
61	20	62	1
62	21	63	1
63	21	64	1
64	21	65	1
65	19	22	1
66	66	67	1
67	66	87	1
68	66	96	1
69	67	68	2
70	67	73	1
71	68	69	1
72	68	97	1
73	69	71	2
74	69	89	1
75	70	90	1
76	70	98	1
77	70	99	1
78	71	72	1
79	72	73	2
80	72	100	1
81	73	74	1
82	74	75	1
83	74	84	1
84	74	101	1
85	75	76	1
86	75	83	2
87	76	77	2
88	76	102	1
89	77	79	1
90	77	91	1
91	78	103	1
92	78	104	1
93	78	105	1
94	79	81	2
95	79	92	1
96	80	106	1
97	80	107	1
98	80	108	1
99	81	83	1
100	81	93	1
101	82	109	1
102	82	110	1
103	82	111	1
104	83	112	1
105	84	85	1
106	84	87	1
107	84	113	1
108	85	94	2
109	85	95	1
110	86	87	1
111	86	114	1
112	86	115	1
113	87	116	1
114	66	88	1
115	70	89	1
116	71	90	1
117	78	91	1
118	80	92	1
119	82	93	1
120	86	95	1
