@<TRIPOS>MOLECULE
PTX
139 146 1 0 0
SMALL
USER_CHARGES


@<TRIPOS>ATOM
      1 C           9.0221   -2.8612   -5.5634 C.3       1     PTX    0.0000
      2 C           9.1631   -3.3465   -4.1340 C.2       1     PTX    0.0000
      3 O           9.6059   -4.4244   -3.8101 O.2       1     PTX    0.0000
      4 O           8.7216   -2.3820   -3.2802 O.3       1     PTX    0.0000
      5 C           8.8046   -2.5734   -1.8786 C.3       1     PTX    0.0000
      6 C          10.2764   -2.4110   -1.4085 C.2       1     PTX    0.0000
      7 O          10.8628   -3.4290   -1.1027 O.2       1     PTX    0.0000
      8 C          11.0175   -1.0440   -1.2607 C.3       1     PTX    0.0000
      9 C          10.5906   -0.1290   -2.4328 C.3       1     PTX    0.0000
     10 C          12.5419   -1.3050   -1.4432 C.3       1     PTX    0.0000
     11 O          13.1801   -0.2051   -2.0577 O.3       1     PTX    0.0000
     12 C          13.2951   -1.6218   -0.1553 C.3       1     PTX    0.0000
     13 C          13.2209   -0.4952    0.8600 C.3       1     PTX    0.0000
     14 O          13.7643    0.7118    0.3769 O.3       1     PTX    0.0000
     15 C          12.5161    1.3714    0.5008 C.3       1     PTX    0.0000
     16 C          11.8271    0.1133    1.0361 C.3       1     PTX    0.0000
     17 O          11.4374    0.1299    2.3782 O.3       1     PTX    0.0000
     18 C          12.1406    0.6793    3.4058 C.2       1     PTX    0.0000
     19 C          11.3591    0.4931    4.6938 C.3       1     PTX    0.0000
     20 O          13.2134    1.2330    3.3426 O.2       1     PTX    0.0000
     21 C          10.6972   -0.4860    0.1747 C.3       1     PTX    0.0000
     22 C           9.3495    0.2639    0.3183 C.3       1     PTX    0.0000
     23 O           9.5349    1.4789    0.9995 O.3       1     PTX    0.0000
     24 C           9.3413    2.7152    0.4211 C.2       1     PTX    0.0000
     25 O           9.0413    2.7959   -0.7545 O.2       1     PTX    0.0000
     26 C           9.4867    3.8462    1.1776 C.ar      1     PTX    0.0000
     27 C           9.3067    5.0781    0.6613 C.ar      1     PTX    0.0000
     28 C           9.4572    6.1734    1.4236 C.ar      1     PTX    0.0000
     29 C           9.7913    6.0568    2.7169 C.ar      1     PTX    0.0000
     30 C           9.9735    4.8372    3.2431 C.ar      1     PTX    0.0000
     31 C           9.8214    3.7441    2.4790 C.ar      1     PTX    0.0000
     32 C           8.1662   -0.4914    0.9803 C.3       1     PTX    0.0000
     33 O           8.4435   -0.5605    2.3527 O.3       1     PTX    0.0000
     34 C           6.8956    0.3542    0.7868 C.3       1     PTX    0.0000
     35 C           6.4190    0.3531   -0.6786 C.3       1     PTX    0.0000
     36 O           5.0143    0.3174   -0.7694 O.3       1     PTX    0.0000
     37 C           4.2853    1.3137   -0.1967 C.2       1     PTX    0.0000
     38 O           4.7372    2.3012    0.3380 O.2       1     PTX    0.0000
     39 C           2.7906    0.9879   -0.2745 C.3       1     PTX    0.0000
     40 O           2.1186    1.9145   -1.1052 O.3       1     PTX    0.0000
     41 C           1.6791    1.4450   -2.3654 C.3       1     PTL    0.0000
     42 C           1.0244    2.6490   -3.0384 C.3       1     PTL    0.0000
     43 C           2.8406    0.9124   -3.1977 C.3       1     PTL    0.0000
     44 O           0.7303    0.4558   -2.0421 O.3       1     PTL    0.0000
     45 C           0.0276   -0.1310   -3.1015 C.3       1     PTL    0.0000
     46 C          -1.4543    0.2422   -2.9980 C.3       1     PTL    0.0000
     47 C          -2.2791   -0.4585   -4.0873 C.3       1     PTL    0.0000
     48 C          -2.1086   -1.9818   -4.0059 C.3       1     PTL    0.0000
     49 C          -0.6253   -2.3668   -4.0931 C.3       1     PTL    0.0000
     50 C           0.1876   -1.6520   -3.0044 C.3       1     PTL    0.0000
     51 C           2.1412    1.0419    1.1256 C.3       1     PTX    0.0000
     52 N           0.7010    0.8015    0.9426 N.am      1     PTX    0.0000
     53 C          -0.2068    0.3177    1.8446 C.2       1     PTX    0.0000
     54 O          -1.1948   -0.1662    1.3417 O.2       1     PTX    0.0000
     55 C           0.0222    0.2150    3.1865 C.ar      1     PTX    0.0000
     56 C           0.8125    1.0758    3.8549 C.ar      1     PTX    0.0000
     57 C           1.0286    0.9490    5.1738 C.ar      1     PTX    0.0000
     58 C           0.4425   -0.0415    5.8606 C.ar      1     PTX    0.0000
     59 C          -0.3719   -0.8906    5.2184 C.ar      1     PTX    0.0000
     60 C          -0.5838   -0.7564    3.8995 C.ar      1     PTX    0.0000
     61 C           2.8035   -0.0190    1.9893 C.ar      1     PTX    0.0000
     62 C           2.5335   -1.3264    1.8187 C.ar      1     PTX    0.0000
     63 C           3.1201   -2.2604    2.5830 C.ar      1     PTX    0.0000
     64 C           3.9980   -1.8990    3.5303 C.ar      1     PTX    0.0000
     65 C           4.2916   -0.6016    3.7004 C.ar      1     PTX    0.0000
     66 C           3.6994    0.3258    2.9326 C.ar      1     PTX    0.0000
     67 C           7.0411   -0.7266   -1.5732 C.2       1     PTX    0.0000
     68 C           6.7555   -0.4844   -3.0418 C.3       1     PTX    0.0000
     69 C           7.8421   -1.7015   -1.0749 C.2       1     PTX    0.0000
     70 C           7.8211   -1.9055    0.4397 C.3       1     PTX    0.0000
     71 C           8.6351   -3.0733    1.0640 C.3       1     PTX    0.0000
     72 C           6.3813   -2.4099    0.7822 C.3       1     PTX    0.0000
     73 H           9.3785   -3.6346   -6.2804 H         1     PTX    0.0000
     74 H           7.9553   -2.6396   -5.7937 H         1     PTX    0.0000
     75 H           9.6269   -1.9390   -5.7192 H         1     PTX    0.0000
     76 H           8.4630   -3.6153   -1.6731 H         1     PTX    0.0000
     77 H          10.9445    0.9169   -2.3013 H         1     PTX    0.0000
     78 H          10.9815   -0.5083   -3.4045 H         1     PTX    0.0000
     79 H           9.5000   -0.0461   -2.5813 H         1     PTX    0.0000
     80 H          12.7008   -2.1395   -2.1691 H         1     PTX    0.0000
     81 H          14.0457   -0.0561   -1.6715 H         1     PTX    0.0000
     82 H          12.8827   -2.5429    0.3173 H         1     PTX    0.0000
     83 H          14.3662   -1.8368   -0.3836 H         1     PTX    0.0000
     84 H          13.7351   -0.7747    1.8067 H         1     PTX    0.0000
     85 H          12.5842    2.2397    1.1866 H         1     PTX    0.0000
     86 H          12.1537    1.6930   -0.4974 H         1     PTX    0.0000
     87 H          10.3326    0.9138    4.5969 H         1     PTX    0.0000
     88 H          11.2834   -0.5896    4.9429 H         1     PTX    0.0000
     89 H          11.8633    1.0103    5.5410 H         1     PTX    0.0000
     90 H          10.5833   -1.4039    0.7871 H         1     PTX    0.0000
     91 H           9.0176    0.4993   -0.7026 H         1     PTX    0.0000
     92 H           9.0323    5.2382   -0.3945 H         1     PTX    0.0000
     93 H           9.3066    7.1753    0.9868 H         1     PTX    0.0000
     94 H           9.9156    6.9563    3.3424 H         1     PTX    0.0000
     95 H          10.2492    4.7343    4.3063 H         1     PTX    0.0000
     96 H           9.9840    2.7679    2.9638 H         1     PTX    0.0000
     97 H           8.6314    0.3267    2.6742 H         1     PTX    0.0000
     98 H           7.0544    1.3938    1.1506 H         1     PTX    0.0000
     99 H           6.0993   -0.0145    1.4699 H         1     PTX    0.0000
    100 H           6.7559    1.3167   -1.1368 H         1     PTX    0.0000
    101 H           2.6645   -0.0479   -0.6593 H         1     PTX    0.0000
    102 H           0.6487    2.4281   -4.0612 H         1     PTL    0.0000
    103 H           0.1692    3.0335   -2.4370 H         1     PTL    0.0000
    104 H           1.7560    3.4827   -3.1432 H         1     PTL    0.0000
    105 H           2.5686    0.7919   -4.2692 H         1     PTL    0.0000
    106 H           3.2011   -0.0815   -2.8532 H         1     PTL    0.0000
    107 H           3.6997    1.6207   -3.1728 H         1     PTL    0.0000
    108 H           0.4251    0.1980   -4.0862 H         1     PTL    0.0000
    109 H          -1.8448   -0.0476   -1.9934 H         1     PTL    0.0000
    110 H          -1.5816    1.3465   -3.0902 H         1     PTL    0.0000
    111 H          -3.3575   -0.1908   -3.9799 H         1     PTL    0.0000
    112 H          -1.9499   -0.0995   -5.0914 H         1     PTL    0.0000
    113 H          -2.5326   -2.3521   -3.0421 H         1     PTL    0.0000
    114 H          -2.6801   -2.4747   -4.8283 H         1     PTL    0.0000
    115 H          -0.5127   -3.4724   -3.9883 H         1     PTL    0.0000
    116 H          -0.2265   -2.0896   -5.0979 H         1     PTL    0.0000
    117 H          -0.1493   -2.0018   -1.9994 H         1     PTL    0.0000
    118 H           1.2654   -1.9266   -3.1017 H         1     PTL    0.0000
    119 H           2.2840    2.0747    1.5179 H         1     PTX    0.0000
    120 H           0.3403    0.9036   -0.0050 H         1     PTX    0.0000
    121 H           1.2792    1.9389    3.3603 H         1     PTX    0.0000
    122 H           1.6772    1.6700    5.6997 H         1     PTX    0.0000
    123 H           0.6156   -0.1468    6.9444 H         1     PTX    0.0000
    124 H          -0.8659   -1.7028    5.7782 H         1     PTX    0.0000
    125 H          -1.2548   -1.4925    3.4251 H         1     PTX    0.0000
    126 H           1.8190   -1.6481    1.0432 H         1     PTX    0.0000
    127 H           2.8836   -3.3266    2.4304 H         1     PTX    0.0000
    128 H           4.4841   -2.6645    4.1575 H         1     PTX    0.0000
    129 H           5.0220   -0.2981    4.4688 H         1     PTX    0.0000
    130 H           3.9580    1.3865    3.0857 H         1     PTX    0.0000
    131 H           7.5967    0.0229   -3.5604 H         1     PTX    0.0000
    132 H           6.4808   -1.4244   -3.5674 H         1     PTX    0.0000
    133 H           5.8681    0.1684   -3.1890 H         1     PTX    0.0000
    134 H           8.4383   -3.1565    2.1570 H         1     PTX    0.0000
    135 H           8.3669   -4.0591    0.6226 H         1     PTX    0.0000
    136 H           9.7323   -3.0344    1.0007 H         1     PTX    0.0000
    137 H           6.2122   -2.4377    1.8822 H         1     PTX    0.0000
    138 H           5.5428   -1.8365    0.3429 H         1     PTX    0.0000
    139 H           6.2026   -3.4382    0.3934 H         1     PTX    0.0000
@<TRIPOS>BOND
     1     1     2     1
     2     1    73     1
     3     1    74     1
     4     1    75     1
     5     2     3     2
     6     2     4     1
     7     4     5     1
     8     5     6     1
     9     5    69     1
    10     5    76     1
    11     6     7     2
    12     6     8     1
    13     8     9     1
    14     8    10     1
    15     8    21     1
    16     9    77     1
    17     9    78     1
    18     9    79     1
    19    10    11     1
    20    10    12     1
    21    10    80     1
    22    11    81     1
    23    12    13     1
    24    12    82     1
    25    12    83     1
    26    13    14     1
    27    13    16     1
    28    13    84     1
    29    14    15     1
    30    15    16     1
    31    15    85     1
    32    15    86     1
    33    16    17     1
    34    16    21     1
    35    17    18     1
    36    18    19     1
    37    18    20     2
    38    19    87     1
    39    19    88     1
    40    19    89     1
    41    21    22     1
    42    21    90     1
    43    22    23     1
    44    22    32     1
    45    22    91     1
    46    23    24     1
    47    24    25     2
    48    24    26     1
    49    26    27     1
    50    26    31     2
    51    27    28     2
    52    27    92     1
    53    28    29     1
    54    28    93     1
    55    29    30     2
    56    29    94     1
    57    30    31     1
    58    30    95     1
    59    31    96     1
    60    32    33     1
    61    32    34     1
    62    32    70     1
    63    33    97     1
    64    34    35     1
    65    34    98     1
    66    34    99     1
    67    35    36     1
    68    35    67     1
    69    35   100     1
    70    36    37     1
    71    37    38     2
    72    37    39     1
    73    39    40     1
    74    39    51     1
    75    39   101     1
    76    40    41     1
    77    41    42     1
    78    41    43     1
    79    41    44     1
    80    42   102     1
    81    42   103     1
    82    42   104     1
    83    43   105     1
    84    43   106     1
    85    43   107     1
    86    44    45     1
    87    45    46     1
    88    45    50     1
    89    45   108     1
    90    46    47     1
    91    46   109     1
    92    46   110     1
    93    47    48     1
    94    47   111     1
    95    47   112     1
    96    48    49     1
    97    48   113     1
    98    48   114     1
    99    49    50     1
   100    49   115     1
   101    49   116     1
   102    50   117     1
   103    50   118     1
   104    51    52     1
   105    51    61     1
   106    51   119     1
   107    52    53     1
   108    52   120     1
   109    53    54     2
   110    53    55     1
   111    55    56     1
   112    55    60     2
   113    56    57     2
   114    56   121     1
   115    57    58     1
   116    57   122     1
   117    58    59     2
   118    58   123     1
   119    59    60     1
   120    59   124     1
   121    60   125     1
   122    61    62     1
   123    61    66     2
   124    62    63     2
   125    62   126     1
   126    63    64     1
   127    63   127     1
   128    64    65     2
   129    64   128     1
   130    65    66     1
   131    65   129     1
   132    66   130     1
   133    67    68     1
   134    67    69     2
   135    68   131     1
   136    68   132     1
   137    68   133     1
   138    69    70     1
   139    70    71     1
   140    70    72     1
   141    71   134     1
   142    71   135     1
   143    71   136     1
   144    72   137     1
   145    72   138     1
   146    72   139     1
