# created with PyMOL 2.5.4
@<TRIPOS>MOLECULE
PTX
139 146 2               
SMALL
USER_CHARGES
@<TRIPOS>ATOM
1	   C	1.679	1.445	-2.365	C.3	1	PTL1	0.000	
2	   C	1.024	2.649	-3.038	C.3	1	PTL1	0.000	
3	   C	2.841	0.912	-3.198	C.3	1	PTL1	0.000	
4	   C	0.028	-0.131	-3.102	C.3	1	PTL1	0.000	
5	   C	-1.454	0.242	-2.998	C.3	1	PTL1	0.000	
6	   C	-2.279	-0.458	-4.087	C.3	1	PTL1	0.000	
7	   C	-2.109	-1.982	-4.006	C.3	1	PTL1	0.000	
8	   C	-0.625	-2.367	-4.093	C.3	1	PTL1	0.000	
9	   C	0.188	-1.652	-3.004	C.3	1	PTL1	0.000	
10	   O	0.730	0.456	-2.042	O.3	1	PTL1	0.000	
11	   H	0.649	2.428	-4.061	 H	1	PTL1	0.000	
12	   H	0.169	3.033	-2.437	 H	1	PTL1	0.000	
13	   H	1.756	3.483	-3.143	 H	1	PTL1	0.000	
14	   H	2.569	0.792	-4.269	 H	1	PTL1	0.000	
15	   H	3.201	-0.082	-2.853	 H	1	PTL1	0.000	
16	   H	3.700	1.621	-3.173	 H	1	PTL1	0.000	
17	   H	0.425	0.198	-4.086	 H	1	PTL1	0.000	
18	   H	-1.845	-0.048	-1.993	 H	1	PTL1	0.000	
19	   H	-1.582	1.347	-3.090	 H	1	PTL1	0.000	
20	   H	-3.358	-0.191	-3.980	 H	1	PTL1	0.000	
21	   H	-1.950	-0.100	-5.091	 H	1	PTL1	0.000	
22	   H	-2.533	-2.352	-3.042	 H	1	PTL1	0.000	
23	   H	-2.680	-2.475	-4.828	 H	1	PTL1	0.000	
24	   H	-0.513	-3.472	-3.988	 H	1	PTL1	0.000	
25	   H	-0.227	-2.090	-5.098	 H	1	PTL1	0.000	
26	   H	-0.149	-2.002	-1.999	 H	1	PTL1	0.000	
27	   H	1.265	-1.927	-3.102	 H	1	PTL1	0.000	
28	   N	0.701	0.802	0.943	N.pl3	2	PTX1	0.000	
29	   C	9.022	-2.861	-5.563	C.3	2	PTX1	0.000	
30	   C	9.163	-3.346	-4.134	C.2	2	PTX1	0.000	
31	   C	8.805	-2.573	-1.879	C.3	2	PTX1	0.000	
32	   C	10.276	-2.411	-1.408	C.2	2	PTX1	0.000	
33	   C	11.017	-1.044	-1.261	C.3	2	PTX1	0.000	
34	   C	10.591	-0.129	-2.433	C.3	2	PTX1	0.000	
35	   C	12.542	-1.305	-1.443	C.3	2	PTX1	0.000	
36	   C	13.295	-1.622	-0.155	C.3	2	PTX1	0.000	
37	   C	13.221	-0.495	0.860	C.3	2	PTX1	0.000	
38	   C	12.516	1.371	0.501	C.3	2	PTX1	0.000	
39	   C	11.827	0.113	1.036	C.3	2	PTX1	0.000	
40	   C	12.141	0.679	3.406	C.2	2	PTX1	0.000	
41	   C	11.359	0.493	4.694	C.3	2	PTX1	0.000	
42	   C	10.697	-0.486	0.175	C.3	2	PTX1	0.000	
43	   C	9.349	0.264	0.318	C.3	2	PTX1	0.000	
44	   C	9.341	2.715	0.421	C.2	2	PTX1	0.000	
45	   C	9.487	3.846	1.178	C.2	2	PTX1	0.000	
46	   C	9.307	5.078	0.661	C.2	2	PTX1	0.000	
47	   C	9.457	6.173	1.424	C.2	2	PTX1	0.000	
48	   C	9.791	6.057	2.717	C.2	2	PTX1	0.000	
49	   C	9.974	4.837	3.243	C.2	2	PTX1	0.000	
50	   C	9.821	3.744	2.479	C.2	2	PTX1	0.000	
51	   C	8.166	-0.491	0.980	C.3	2	PTX1	0.000	
52	   C	6.896	0.354	0.787	C.3	2	PTX1	0.000	
53	   C	6.419	0.353	-0.679	C.3	2	PTX1	0.000	
54	   C	4.285	1.314	-0.197	C.2	2	PTX1	0.000	
55	   C	2.791	0.988	-0.275	C.3	2	PTX1	0.000	
56	   C	2.141	1.042	1.126	C.3	2	PTX1	0.000	
57	   C	-0.207	0.318	1.845	C.2	2	PTX1	0.000	
58	   C	0.022	0.215	3.187	C.2	2	PTX1	0.000	
59	   C	0.812	1.076	3.855	C.2	2	PTX1	0.000	
60	   C	1.029	0.949	5.174	C.2	2	PTX1	0.000	
61	   C	0.442	-0.041	5.861	C.2	2	PTX1	0.000	
62	   C	-0.372	-0.891	5.218	C.2	2	PTX1	0.000	
63	   C	-0.584	-0.756	3.899	C.2	2	PTX1	0.000	
64	   C	2.803	-0.019	1.989	C.2	2	PTX1	0.000	
65	   C	2.533	-1.326	1.819	C.2	2	PTX1	0.000	
66	   C	3.120	-2.260	2.583	C.2	2	PTX1	0.000	
67	   C	3.998	-1.899	3.530	C.2	2	PTX1	0.000	
68	   C	4.292	-0.602	3.700	C.2	2	PTX1	0.000	
69	   C	3.699	0.326	2.933	C.2	2	PTX1	0.000	
70	   C	7.041	-0.727	-1.573	C.2	2	PTX1	0.000	
71	   C	6.755	-0.484	-3.042	C.3	2	PTX1	0.000	
72	   C	7.842	-1.702	-1.075	C.2	2	PTX1	0.000	
73	   C	7.821	-1.906	0.440	C.3	2	PTX1	0.000	
74	   C	8.635	-3.073	1.064	C.3	2	PTX1	0.000	
75	   C	6.381	-2.410	0.782	C.3	2	PTX1	0.000	
76	   O	9.606	-4.424	-3.810	O.co2	2	PTX1	0.000	
77	   O	8.722	-2.382	-3.280	O.3	2	PTX1	0.000	
78	   O	10.863	-3.429	-1.103	O.2	2	PTX1	0.000	
79	   O	13.180	-0.205	-2.058	O.3	2	PTX1	0.000	
80	   O	13.764	0.712	0.377	O.3	2	PTX1	0.000	
81	   O	11.437	0.130	2.378	O.3	2	PTX1	0.000	
82	   O	13.213	1.233	3.343	O.co2	2	PTX1	0.000	
83	   O	9.535	1.479	0.999	O.3	2	PTX1	0.000	
84	   O	9.041	2.796	-0.754	O.co2	2	PTX1	0.000	
85	   O	8.443	-0.561	2.353	O.3	2	PTX1	0.000	
86	   O	5.014	0.317	-0.769	O.3	2	PTX1	0.000	
87	   O	4.737	2.301	0.338	O.co2	2	PTX1	0.000	
88	   O	2.119	1.914	-1.105	O.3	2	PTX1	0.000	
89	   O	-1.195	-0.166	1.342	O.2	2	PTX1	0.000	
90	   H	9.378	-3.635	-6.280	 H	2	PTX1	0.000	
91	   H	7.955	-2.640	-5.794	 H	2	PTX1	0.000	
92	   H	9.627	-1.939	-5.719	 H	2	PTX1	0.000	
93	   H	8.463	-3.615	-1.673	 H	2	PTX1	0.000	
94	   H	10.944	0.917	-2.301	 H	2	PTX1	0.000	
95	   H	10.981	-0.508	-3.405	 H	2	PTX1	0.000	
96	   H	9.500	-0.046	-2.581	 H	2	PTX1	0.000	
97	   H	12.701	-2.139	-2.169	 H	2	PTX1	0.000	
98	   H	14.046	-0.056	-1.671	 H	2	PTX1	0.000	
99	   H	12.883	-2.543	0.317	 H	2	PTX1	0.000	
100	   H	14.366	-1.837	-0.384	 H	2	PTX1	0.000	
101	   H	13.735	-0.775	1.807	 H	2	PTX1	0.000	
102	   H	12.584	2.240	1.187	 H	2	PTX1	0.000	
103	   H	12.154	1.693	-0.497	 H	2	PTX1	0.000	
104	   H	10.333	0.914	4.597	 H	2	PTX1	0.000	
105	   H	11.283	-0.590	4.943	 H	2	PTX1	0.000	
106	   H	11.863	1.010	5.541	 H	2	PTX1	0.000	
107	   H	10.583	-1.404	0.787	 H	2	PTX1	0.000	
108	   H	9.018	0.499	-0.703	 H	2	PTX1	0.000	
109	   H	9.032	5.238	-0.394	 H	2	PTX1	0.000	
110	   H	9.307	7.175	0.987	 H	2	PTX1	0.000	
111	   H	9.916	6.956	3.342	 H	2	PTX1	0.000	
112	   H	10.249	4.734	4.306	 H	2	PTX1	0.000	
113	   H	9.984	2.768	2.964	 H	2	PTX1	0.000	
114	   H	8.631	0.327	2.674	 H	2	PTX1	0.000	
115	   H	7.054	1.394	1.151	 H	2	PTX1	0.000	
116	   H	6.099	-0.014	1.470	 H	2	PTX1	0.000	
117	   H	6.756	1.317	-1.137	 H	2	PTX1	0.000	
118	   H	2.664	-0.048	-0.659	 H	2	PTX1	0.000	
119	   H	2.284	2.075	1.518	 H	2	PTX1	0.000	
120	   H	0.340	0.904	-0.005	 H	2	PTX1	0.000	
121	   H	1.279	1.939	3.360	 H	2	PTX1	0.000	
122	   H	1.677	1.670	5.700	 H	2	PTX1	0.000	
123	   H	0.616	-0.147	6.944	 H	2	PTX1	0.000	
124	   H	-0.866	-1.703	5.778	 H	2	PTX1	0.000	
125	   H	-1.255	-1.492	3.425	 H	2	PTX1	0.000	
126	   H	1.819	-1.648	1.043	 H	2	PTX1	0.000	
127	   H	2.884	-3.327	2.430	 H	2	PTX1	0.000	
128	   H	4.484	-2.664	4.157	 H	2	PTX1	0.000	
129	   H	5.022	-0.298	4.469	 H	2	PTX1	0.000	
130	   H	3.958	1.387	3.086	 H	2	PTX1	0.000	
131	   H	7.597	0.023	-3.560	 H	2	PTX1	0.000	
132	   H	6.481	-1.424	-3.567	 H	2	PTX1	0.000	
133	   H	5.868	0.168	-3.189	 H	2	PTX1	0.000	
134	   H	8.438	-3.157	2.157	 H	2	PTX1	0.000	
135	   H	8.367	-4.059	0.623	 H	2	PTX1	0.000	
136	   H	9.732	-3.034	1.001	 H	2	PTX1	0.000	
137	   H	6.212	-2.438	1.882	 H	2	PTX1	0.000	
138	   H	5.543	-1.837	0.343	 H	2	PTX1	0.000	
139	   H	6.203	-3.438	0.393	 H	2	PTX1	0.000	
@<TRIPOS>BOND
1 1 2 1
2 1 3 1
3 1 10 1
4 2 11 1
5 2 12 1
6 2 13 1
7 3 14 1
8 3 15 1
9 3 16 1
10 4 5 1
11 4 9 1
12 4 17 1
13 5 6 1
14 5 18 1
15 5 19 1
16 6 7 1
17 6 20 1
18 6 21 1
19 7 8 1
20 7 22 1
21 7 23 1
22 8 9 1
23 8 24 1
24 8 25 1
25 9 26 1
26 9 27 1
27 4 10 1
28 28 57 1
29 28 120 1
30 29 30 1
31 29 90 1
32 29 91 1
33 29 92 1
34 30 76 2
35 30 77 1
36 31 32 1
37 31 72 1
38 31 93 1
39 32 33 1
40 32 78 2
41 33 34 1
42 33 35 1
43 33 42 1
44 34 94 1
45 34 95 1
46 34 96 1
47 35 36 1
48 35 79 1
49 35 97 1
50 36 37 1
51 36 99 1
52 36 100 1
53 37 39 1
54 37 80 1
55 37 101 1
56 38 39 1
57 38 102 1
58 38 103 1
59 39 42 1
60 39 81 1
61 40 41 1
62 40 82 2
63 41 104 1
64 41 105 1
65 41 106 1
66 42 43 1
67 42 107 1
68 43 51 1
69 43 83 1
70 43 108 1
71 44 45 1
72 44 84 2
73 45 46 1
74 45 50 2
75 46 47 2
76 46 109 1
77 47 48 1
78 47 110 1
79 48 49 2
80 48 111 1
81 49 50 1
82 49 112 1
83 50 113 1
84 51 52 1
85 51 73 1
86 51 85 1
87 52 53 1
88 52 115 1
89 52 116 1
90 53 70 1
91 53 86 1
92 53 117 1
93 54 55 1
94 54 87 2
95 55 56 1
96 55 88 1
97 55 118 1
98 28 56 1
99 56 64 1
100 56 119 1
101 57 58 1
102 57 89 2
103 58 59 1
104 58 63 2
105 59 60 2
106 59 121 1
107 60 61 1
108 60 122 1
109 61 62 2
110 61 123 1
111 62 63 1
112 62 124 1
113 63 125 1
114 64 65 1
115 64 69 2
116 65 66 2
117 65 126 1
118 66 67 1
119 66 127 1
120 67 68 2
121 67 128 1
122 68 69 1
123 68 129 1
124 69 130 1
125 70 71 1
126 70 72 2
127 71 131 1
128 71 132 1
129 71 133 1
130 72 73 1
131 73 74 1
132 73 75 1
133 74 134 1
134 74 135 1
135 74 136 1
136 75 137 1
137 75 138 1
138 75 139 1
139 31 77 1
140 79 98 1
141 38 80 1
142 40 81 1
143 44 83 1
144 85 114 1
145 54 86 1
146 1 88 1
@<TRIPOS>SUBSTRUCTURE
1	PTL1	1	GROUP	1 ****	PTL
2	PTX1	28	GROUP	1 ****	PTX
