@<TRIPOS>MOLECULE
PTX
141 147 1 0 0
SMALL
USER_CHARGES


@<TRIPOS>ATOM
      1 C           5.5827   -6.6014    2.6580 C.3       1     PTL    0.0000
      2 C           5.8562   -6.0335    1.2589 C.3       1     PTL    0.0000
      3 C           4.9551   -4.8286    0.9454 C.3       1     PTL    0.0000
      4 C           5.2273   -4.2544   -0.4546 C.3       1     PTL    0.0000
      5 C           4.3270   -3.0462   -0.7606 C.3       1     PTL    0.0000
      6 C           4.6070   -2.4563   -2.1553 C.3       1     PTL    0.0000
      7 C           3.7671   -1.2194   -2.4941 C.3       1     PTL    0.0000
      8 C           4.0837   -0.7320   -3.9068 C.3       1     PTL    0.0000
      9 O           2.3914   -1.4544   -2.3072 O.3       1     PTL    0.0000
     10 C           1.7771   -2.3548   -3.2007 C.3       1     PTL    0.0000
     11 O           4.1595   -0.2214   -1.5688 O.3       1     PTX    0.0000
     12 C           3.2563    0.8426   -1.3586 C.3       1     PTX    0.0000
     13 C           2.0638    0.4284   -0.4820 C.2       1     PTX    0.0000
     14 O           2.1573   -0.3437    0.4441 O.2       1     PTX    0.0000
     15 O           0.9569    1.0708   -0.9344 O.3       1     PTX    0.0000
     16 C          -0.3861    0.8119   -0.5922 C.3       1     PTX    0.0000
     17 C          -0.7483   -0.5813   -0.0476 C.3       1     PTX    0.0000
     18 C          -2.0737   -0.5304    0.7386 C.3       1     PTX    0.0000
     19 O          -2.2900   -1.7862    1.3266 O.3       1     PTX    0.0000
     20 C          -3.2371   -0.3113   -0.2657 C.3       1     PTX    0.0000
     21 O          -3.2852   -1.4357   -1.1074 O.3       1     PTX    0.0000
     22 C          -2.8918   -1.4036   -2.4266 C.2       1     PTX    0.0000
     23 O          -2.8169   -0.3380   -3.0075 O.2       1     PTX    0.0000
     24 C          -2.5178   -2.5608   -3.0546 C.ar      1     PTX    0.0000
     25 C          -2.0871   -2.5706   -4.3318 C.ar      1     PTX    0.0000
     26 C          -1.7150   -3.7161   -4.9255 C.ar      1     PTX    0.0000
     27 C          -1.7694   -4.8746   -4.2530 C.ar      1     PTX    0.0000
     28 C          -2.1995   -4.8798   -2.9833 C.ar      1     PTX    0.0000
     29 C          -2.5695   -3.7331   -2.3916 C.ar      1     PTX    0.0000
     30 C          -4.6405    0.0080    0.3063 C.3       1     PTX    0.0000
     31 C          -5.0677    1.5224    0.2617 C.3       1     PTX    0.0000
     32 C          -4.6294    2.2942   -1.0053 C.3       1     PTX    0.0000
     33 C          -4.4385    2.2229    1.5082 C.2       1     PTX    0.0000
     34 O          -5.0762    2.2519    2.5409 O.2       1     PTX    0.0000
     35 C          -3.0168    2.8471    1.5473 C.3       1     PTX    0.0000
     36 O          -2.9983    4.0762    0.8430 O.3       1     PTX    0.0000
     37 C          -3.5804    5.1847    1.3772 C.2       1     PTX    0.0000
     38 C          -3.4267    6.3494    0.4189 C.3       1     PTX    0.0000
     39 O          -4.1392    5.2386    2.4483 O.2       1     PTX    0.0000
     40 C          -1.9494    1.8564    1.0884 C.2       1     PTX    0.0000
     41 C          -1.0938    2.0164    0.0473 C.2       1     PTX    0.0000
     42 C          -0.8848    3.3059   -0.7228 C.3       1     PTX    0.0000
     43 C          -1.8587    0.5355    1.8496 C.3       1     PTX    0.0000
     44 C          -0.4348    0.5570    2.4974 C.3       1     PTX    0.0000
     45 C          -2.7077    0.3260    3.1335 C.3       1     PTX    0.0000
     46 C          -6.6140    1.6822    0.3574 C.3       1     PTX    0.0000
     47 O          -7.1979    1.8030   -0.9230 O.3       1     PTX    0.0000
     48 C          -7.3309    0.5529    1.0903 C.3       1     PTX    0.0000
     49 C          -7.1249   -0.7985    0.4296 C.3       1     PTX    0.0000
     50 O          -7.5905   -0.8350   -0.8999 O.3       1     PTX    0.0000
     51 C          -6.2900   -1.1096   -1.3918 C.3       1     PTX    0.0000
     52 C          -5.6813   -1.0907    0.0126 C.3       1     PTX    0.0000
     53 O          -5.2352   -2.3122    0.5244 O.3       1     PTX    0.0000
     54 C          -5.8509   -3.5156    0.3673 C.2       1     PTX    0.0000
     55 C          -5.0395   -4.5819    1.0807 C.3       1     PTX    0.0000
     56 O          -6.8763   -3.7392   -0.2327 O.2       1     PTX    0.0000
     57 C           4.0016    2.0216   -0.6964 C.3       1     PTX    0.0000
     58 N           3.0366    3.1195   -0.5360 N.am      1     PTX    0.0000
     59 C           3.1577    4.2746    0.1907 C.2       1     PTX    0.0000
     60 O           2.0979    4.8257    0.3830 O.2       1     PTX    0.0000
     61 C           4.2947    4.7147    0.8085 C.ar      1     PTX    0.0000
     62 C           4.1949    5.4956    1.9051 C.ar      1     PTX    0.0000
     63 C           5.2811    5.9432    2.5550 C.ar      1     PTX    0.0000
     64 C           6.5070    5.6289    2.1148 C.ar      1     PTX    0.0000
     65 C           6.6297    4.8756    1.0136 C.ar      1     PTX    0.0000
     66 C           5.5367    4.4333    0.3712 C.ar      1     PTX    0.0000
     67 C           4.6029    1.5884    0.6300 C.ar      1     PTX    0.0000
     68 C           3.9123    1.6521    1.7841 C.ar      1     PTX    0.0000
     69 C           4.4600    1.2593    2.9443 C.ar      1     PTX    0.0000
     70 C           5.7157    0.7893    2.9693 C.ar      1     PTX    0.0000
     71 C           6.4157    0.7133    1.8279 C.ar      1     PTX    0.0000
     72 C           5.8597    1.1088    0.6726 C.ar      1     PTX    0.0000
     73 H           6.2426   -7.4736    2.8714 H         1     PTL    0.0000
     74 H           5.7680   -5.8358    3.4458 H         1     PTL    0.0000
     75 H           4.5269   -6.9440    2.7531 H         1     PTL    0.0000
     76 H           5.6889   -6.8334    0.4985 H         1     PTL    0.0000
     77 H           6.9275   -5.7272    1.1903 H         1     PTL    0.0000
     78 H           5.1237   -4.0339    1.7106 H         1     PTL    0.0000
     79 H           3.8855   -5.1390    1.0167 H         1     PTL    0.0000
     80 H           5.0564   -5.0473   -1.2210 H         1     PTL    0.0000
     81 H           6.2974   -3.9456   -0.5247 H         1     PTL    0.0000
     82 H           4.4941   -2.2698    0.0226 H         1     PTL    0.0000
     83 H           3.2601   -3.3636   -0.6896 H         1     PTL    0.0000
     84 H           4.4674   -3.2499   -2.9244 H         1     PTL    0.0000
     85 H           5.6857   -2.1726   -2.2087 H         1     PTL    0.0000
     86 H           3.3990    0.0786   -4.2415 H         1     PTL    0.0000
     87 H           4.0190   -1.5524   -4.6560 H         1     PTL    0.0000
     88 H           5.1229   -0.3357   -3.9678 H         1     PTL    0.0000
     89 H           0.7201   -2.4791   -2.8737 H         1     PTL    0.0000
     90 H           1.7639   -1.9436   -4.2324 H         1     PTL    0.0000
     91 H           2.2639   -3.3516   -3.1684 H         1     PTL    0.0000
     92 H           2.8933    1.1956   -2.3525 H         1     PTX    0.0000
     93 H          -0.8868    0.8182   -1.5987 H         1     PTX    0.0000
     94 H          -0.7648   -1.3252   -0.8753 H         1     PTX    0.0000
     95 H          -0.0087   -1.0343    0.6353 H         1     PTX    0.0000
     96 H          -2.3363   -2.4494    0.6306 H         1     PTX    0.0000
     97 H          -2.9578    0.5554   -0.8808 H         1     PTX    0.0000
     98 H          -2.0166   -1.6507   -4.9355 H         1     PTX    0.0000
     99 H          -1.3607   -3.7072   -5.9703 H         1     PTX    0.0000
    100 H          -1.4631   -5.8153   -4.7401 H         1     PTX    0.0000
    101 H          -2.2474   -5.8302   -2.4251 H         1     PTX    0.0000
    102 H          -2.9134   -3.7990   -1.3464 H         1     PTX    0.0000
    103 H          -4.5678   -0.2072    1.3925 H         1     PTX    0.0000
    104 H          -4.9014    1.7592   -1.9413 H         1     PTX    0.0000
    105 H          -5.0888    3.3084   -1.0402 H         1     PTX    0.0000
    106 H          -3.5431    2.4731   -1.0836 H         1     PTX    0.0000
    107 H          -2.7433    3.0784    2.6040 H         1     PTX    0.0000
    108 H          -3.9114    6.1140   -0.5558 H         1     PTX    0.0000
    109 H          -3.9050    7.2662    0.8313 H         1     PTX    0.0000
    110 H          -2.3487    6.5685    0.2455 H         1     PTX    0.0000
    111 H          -1.7147    3.5163   -1.4305 H         1     PTX    0.0000
    112 H          -0.7277    4.1689   -0.0409 H         1     PTX    0.0000
    113 H           0.0386    3.2863   -1.3400 H         1     PTX    0.0000
    114 H          -0.1588   -0.4319    2.9294 H         1     PTX    0.0000
    115 H           0.3892    0.8682    1.8254 H         1     PTX    0.0000
    116 H          -0.3683    1.3051    3.3201 H         1     PTX    0.0000
    117 H          -2.4252   -0.6222    3.6447 H         1     PTX    0.0000
    118 H          -2.5577    1.1378    3.8796 H         1     PTX    0.0000
    119 H          -3.7991    0.2454    3.0217 H         1     PTX    0.0000
    120 H          -6.8658    2.6514    0.8536 H         1     PTX    0.0000
    121 H          -8.0288    1.3249   -0.9624 H         1     PTX    0.0000
    122 H          -6.9703    0.4835    2.1424 H         1     PTX    0.0000
    123 H          -8.4245    0.7686    1.1459 H         1     PTX    0.0000
    124 H          -7.6192   -1.6078    1.0122 H         1     PTX    0.0000
    125 H          -6.2601   -2.0722   -1.9407 H         1     PTX    0.0000
    126 H          -5.9453   -0.2801   -2.0430 H         1     PTX    0.0000
    127 H          -3.9901   -4.5931    0.7084 H         1     PTX    0.0000
    128 H          -5.0315   -4.3884    2.1773 H         1     PTX    0.0000
    129 H          -5.4751   -5.5920    0.9098 H         1     PTX    0.0000
    130 H           4.7797    2.3279   -1.4335 H         1     PTX    0.0000
    131 H           2.0925    2.9679   -0.8939 H         1     PTX    0.0000
    132 H           3.2180    5.7812    2.3311 H         1     PTX    0.0000
    133 H           5.1686    6.5689    3.4566 H         1     PTX    0.0000
    134 H           7.4021    5.9969    2.6430 H         1     PTX    0.0000
    135 H           7.6346    4.6341    0.6273 H         1     PTX    0.0000
    136 H           5.7208    3.8682   -0.5501 H         1     PTX    0.0000
    137 H           2.8755    2.0260    1.7977 H         1     PTX    0.0000
    138 H           3.8761    1.3197    3.8780 H         1     PTX    0.0000
    139 H           6.1680    0.4641    3.9208 H         1     PTX    0.0000
    140 H           7.4475    0.3240    1.8395 H         1     PTX    0.0000
    141 H           6.4508    1.0351   -0.2554 H         1     PTX    0.0000
@<TRIPOS>BOND
     1     1     2     1
     2     1    73     1
     3     1    74     1
     4     1    75     1
     5     2     3     1
     6     2    76     1
     7     2    77     1
     8     3     4     1
     9     3    78     1
    10     3    79     1
    11     4     5     1
    12     4    80     1
    13     4    81     1
    14     5     6     1
    15     5    82     1
    16     5    83     1
    17     6     7     1
    18     6    84     1
    19     6    85     1
    20     7     8     1
    21     7     9     1
    22     7    11     1
    23     8    86     1
    24     8    87     1
    25     8    88     1
    26     9    10     1
    27    10    89     1
    28    10    90     1
    29    10    91     1
    30    11    12     1
    31    12    13     1
    32    12    57     1
    33    12    92     1
    34    13    14     2
    35    13    15     1
    36    15    16     1
    37    16    17     1
    38    16    41     1
    39    16    93     1
    40    17    18     1
    41    17    94     1
    42    17    95     1
    43    18    19     1
    44    18    20     1
    45    18    43     1
    46    19    96     1
    47    20    21     1
    48    20    30     1
    49    20    97     1
    50    21    22     1
    51    22    23     2
    52    22    24     1
    53    24    25     1
    54    24    29     2
    55    25    26     2
    56    25    98     1
    57    26    27     1
    58    26    99     1
    59    27    28     2
    60    27   100     1
    61    28    29     1
    62    28   101     1
    63    29   102     1
    64    30    31     1
    65    30    52     1
    66    30   103     1
    67    31    32     1
    68    31    33     1
    69    31    46     1
    70    32   104     1
    71    32   105     1
    72    32   106     1
    73    33    34     2
    74    33    35     1
    75    35    36     1
    76    35    40     1
    77    35   107     1
    78    36    37     1
    79    37    38     1
    80    37    39     2
    81    38   108     1
    82    38   109     1
    83    38   110     1
    84    40    41     2
    85    40    43     1
    86    41    42     1
    87    42   111     1
    88    42   112     1
    89    42   113     1
    90    43    44     1
    91    43    45     1
    92    44   114     1
    93    44   115     1
    94    44   116     1
    95    45   117     1
    96    45   118     1
    97    45   119     1
    98    46    47     1
    99    46    48     1
   100    46   120     1
   101    47   121     1
   102    48    49     1
   103    48   122     1
   104    48   123     1
   105    49    50     1
   106    49    52     1
   107    49   124     1
   108    50    51     1
   109    51    52     1
   110    51   125     1
   111    51   126     1
   112    52    53     1
   113    53    54     1
   114    54    55     1
   115    54    56     2
   116    55   127     1
   117    55   128     1
   118    55   129     1
   119    57    58     1
   120    57    67     1
   121    57   130     1
   122    58    59     1
   123    58   131     1
   124    59    60     2
   125    59    61     1
   126    61    62     1
   127    61    66     2
   128    62    63     2
   129    62   132     1
   130    63    64     1
   131    63   133     1
   132    64    65     2
   133    64   134     1
   134    65    66     1
   135    65   135     1
   136    66   136     1
   137    67    68     1
   138    67    72     2
   139    68    69     2
   140    68   137     1
   141    69    70     1
   142    69   138     1
   143    70    71     2
   144    70   139     1
   145    71    72     1
   146    71   140     1
   147    72   141     1
