@<TRIPOS>MOLECULE
PTX 
141 147 0 0 0
SMALL
USER_CHARGES
#CGenFF output mol2 file
@<TRIPOS>ATOM
1	C1     5.5830    -6.6010     2.6580	C.3	1	PTX1    -0.2730
2	C2     5.8560    -6.0340     1.2590	C.3	1	PTX1    -0.1770
3	C3     4.9550    -4.8290     0.9450	C.3	1	PTX1    -0.1810
4	C4     5.2270    -4.2540    -0.4550	C.3	1	PTX1    -0.1790
5	C5     4.3270    -3.0460    -0.7610	C.3	1	PTX1    -0.1750
6	C6     4.6070    -2.4560    -2.1550	C.3	1	PTX1    -0.1920
7	C7     3.7670    -1.2190    -2.4940	C.3	1	PTX1     0.2750
8	C8     4.0840    -0.7320    -3.9070	C.3	1	PTX1    -0.2690
9	C9     1.7770    -2.3550    -3.2010	C.3	1	PTX1    -0.0600
10	O1     2.3910    -1.4540    -2.3070	O.3	1	PTX1    -0.3420
11	H1     6.2430    -7.4740     2.8710	H	1	PTX1     0.0900
12	H2     5.7680    -5.8360     3.4460	H	1	PTX1     0.0900
13	H3     4.5270    -6.9440     2.7530	H	1	PTX1     0.0900
14	H4     5.6890    -6.8330     0.4980	H	1	PTX1     0.0900
15	H5     6.9270    -5.7270     1.1900	H	1	PTX1     0.0900
16	H6     5.1240    -4.0340     1.7110	H	1	PTX1     0.0900
17	H7     3.8850    -5.1390     1.0170	H	1	PTX1     0.0900
18	H8     5.0560    -5.0470    -1.2210	H	1	PTX1     0.0900
19	H9     6.2970    -3.9460    -0.5250	H	1	PTX1     0.0900
20	H10     4.4940    -2.2700     0.0230	H	1	PTX1     0.0900
21	H11     3.2600    -3.3640    -0.6900	H	1	PTX1     0.0900
22	H12     4.4670    -3.2500    -2.9240	H	1	PTX1     0.0900
23	H13     5.6860    -2.1730    -2.2090	H	1	PTX1     0.0900
24	H14     3.3990     0.0790    -4.2410	H	1	PTX1     0.0900
25	H15     4.0190    -1.5520    -4.6560	H	1	PTX1     0.0900
26	H16     5.1230    -0.3360    -3.9680	H	1	PTX1     0.0900
27	H17     0.7200    -2.4790    -2.8740	H	1	PTX1     0.0900
28	H18     1.7640    -1.9440    -4.2320	H	1	PTX1     0.0900
29	H19     2.2640    -3.3520    -3.1680	H	1	PTX1     0.0900
30	N     3.0370     3.1190    -0.5360	N.pl3	1	PTX1    -0.4040
31	C10     3.2560     0.8430    -1.3590	C.3	1	PTX1     0.2130
32	C11     2.0640     0.4280    -0.4820	C.2	1	PTX1     0.8500
33	C12    -0.3860     0.8120    -0.5920	C.3	1	PTX1     0.2720
34	C13    -0.7480    -0.5810    -0.0480	C.3	1	PTX1    -0.2120
35	C14    -2.0740    -0.5300     0.7390	C.3	1	PTX1     0.1860
36	C15    -3.2370    -0.3110    -0.2660	C.3	1	PTX1     0.1330
37	C16    -2.8920    -1.4040    -2.4270	C.2	1	PTX1     0.4590
38	C17    -2.5180    -2.5610    -3.0550	C.2	1	PTX1     0.0860
39	C18    -2.0870    -2.5710    -4.3320	C.2	1	PTX1    -0.1100
40	C19    -1.7150    -3.7160    -4.9250	C.2	1	PTX1    -0.1140
41	C20    -1.7690    -4.8750    -4.2530	C.2	1	PTX1    -0.1150
42	C21    -2.2000    -4.8800    -2.9830	C.2	1	PTX1    -0.1140
43	C22    -2.5690    -3.7330    -2.3920	C.2	1	PTX1    -0.1100
44	C23    -4.6410     0.0080     0.3060	C.3	1	PTX1    -0.0740
45	C24    -5.0680     1.5220     0.2620	C.3	1	PTX1     0.0810
46	C25    -4.6290     2.2940    -1.0050	C.3	1	PTX1    -0.2630
47	C26    -4.4380     2.2230     1.5080	C.2	1	PTX1     0.2970
48	C27    -3.0170     2.8470     1.5470	C.3	1	PTX1     0.4320
49	C28    -3.5800     5.1850     1.3770	C.2	1	PTX1     0.8340
50	C29    -3.4270     6.3490     0.4190	C.3	1	PTX1    -0.3110
51	C30    -1.9490     1.8560     1.0880	C.2	1	PTX1    -0.1130
52	C31    -1.0940     2.0160     0.0470	C.2	1	PTX1    -0.1530
53	C32    -0.8850     3.3060    -0.7230	C.3	1	PTX1    -0.2650
54	C33    -1.8590     0.5350     1.8500	C.3	1	PTX1     0.0160
55	C34    -0.4350     0.5570     2.4970	C.3	1	PTX1    -0.2690
56	C35    -2.7080     0.3260     3.1340	C.3	1	PTX1    -0.2690
57	C36    -6.6140     1.6820     0.3570	C.3	1	PTX1     0.1660
58	C37    -7.3310     0.5530     1.0900	C.3	1	PTX1    -0.2010
59	C38    -7.1250    -0.7990     0.4300	C.3	1	PTX1     0.0150
60	C39    -6.2900    -1.1100    -1.3920	C.3	1	PTX1    -0.1060
61	C40    -5.6810    -1.0910     0.0130	C.3	1	PTX1     0.3660
62	C41    -5.8510    -3.5160     0.3670	C.2	1	PTX1     0.8850
63	C42    -5.0400    -4.5820     1.0810	C.3	1	PTX1    -0.3130
64	C43     4.0020     2.0220    -0.6960	C.3	1	PTX1     0.1270
65	C44     3.1580     4.2750     0.1910	C.2	1	PTX1     0.3410
66	C45     4.2950     4.7150     0.8080	C.2	1	PTX1    -0.1370
67	C46     4.1950     5.4960     1.9050	C.2	1	PTX1    -0.0240
68	C47     5.2810     5.9430     2.5550	C.2	1	PTX1    -0.1090
69	C48     6.5070     5.6290     2.1150	C.2	1	PTX1    -0.1150
70	C49     6.6300     4.8760     1.0140	C.2	1	PTX1    -0.1090
71	C50     5.5370     4.4330     0.3710	C.2	1	PTX1    -0.0240
72	C51     4.6030     1.5880     0.6300	C.2	1	PTX1    -0.0400
73	C52     3.9120     1.6520     1.7840	C.2	1	PTX1    -0.1060
74	C53     4.4600     1.2590     2.9440	C.2	1	PTX1    -0.1150
75	C54     5.7160     0.7890     2.9690	C.2	1	PTX1    -0.1150
76	C55     6.4160     0.7130     1.8280	C.2	1	PTX1    -0.1150
77	C56     5.8600     1.1090     0.6730	C.2	1	PTX1    -0.1060
78	O2     4.1600    -0.2210    -1.5690	O.3	1	PTX1    -0.4660
79	O3     2.1570    -0.3440     0.4440	O.co2	1	PTX1    -0.6230
80	O4     0.9570     1.0710    -0.9340	O.3	1	PTX1    -0.4320
81	O5    -2.2900    -1.7860     1.3270	O.3	1	PTX1    -0.4600
82	O6    -3.2850    -1.4360    -1.1070	O.3	1	PTX1    -0.3100
83	O7    -2.8170    -0.3380    -3.0070	O.co2	1	PTX1    -0.4960
84	O8    -5.0760     2.2520     2.5410	O.2	1	PTX1    -0.5150
85	O9    -2.9980     4.0760     0.8430	O.3	1	PTX1    -0.4270
86	O10    -4.1390     5.2390     2.4480	O.co2	1	PTX1    -0.6250
87	O11    -7.1980     1.8030    -0.9230	O.3	1	PTX1    -0.6420
88	O12    -7.5900    -0.8350    -0.9000	O.3	1	PTX1    -0.3430
89	O13    -5.2350    -2.3120     0.5240	O.3	1	PTX1    -0.4220
90	O14    -6.8760    -3.7390    -0.2330	O.co2	1	PTX1    -0.6170
91	O15     2.0980     4.8260     0.3830	O.2	1	PTX1    -0.4580
92	H20     2.8930     1.1960    -2.3520	H	1	PTX1     0.0900
93	H21    -0.8870     0.8180    -1.5990	H	1	PTX1     0.0900
94	H22    -0.7650    -1.3250    -0.8750	H	1	PTX1     0.0900
95	H23    -0.0090    -1.0340     0.6350	H	1	PTX1     0.0900
96	H24    -2.3360    -2.4490     0.6310	H	1	PTX1     0.2920
97	H25    -2.9580     0.5550    -0.8810	H	1	PTX1     0.0900
98	H26    -2.0170    -1.6510    -4.9360	H	1	PTX1     0.1150
99	H27    -1.3610    -3.7070    -5.9700	H	1	PTX1     0.1150
100	H28    -1.4630    -5.8150    -4.7400	H	1	PTX1     0.1150
101	H29    -2.2470    -5.8300    -2.4250	H	1	PTX1     0.1150
102	H30    -2.9130    -3.7990    -1.3460	H	1	PTX1     0.1150
103	H31    -4.5680    -0.2070     1.3930	H	1	PTX1     0.0900
104	H32    -4.9010     1.7590    -1.9410	H	1	PTX1     0.0900
105	H33    -5.0890     3.3080    -1.0400	H	1	PTX1     0.0900
106	H34    -3.5430     2.4730    -1.0840	H	1	PTX1     0.0900
107	H35    -2.7430     3.0780     2.6040	H	1	PTX1     0.0900
108	H36    -3.9110     6.1140    -0.5560	H	1	PTX1     0.0900
109	H37    -3.9050     7.2660     0.8310	H	1	PTX1     0.0900
110	H38    -2.3490     6.5690     0.2450	H	1	PTX1     0.0900
111	H39    -1.7150     3.5160    -1.4310	H	1	PTX1     0.0900
112	H40    -0.7280     4.1690    -0.0410	H	1	PTX1     0.0900
113	H41     0.0390     3.2860    -1.3400	H	1	PTX1     0.0900
114	H42    -0.1590    -0.4320     2.9290	H	1	PTX1     0.0900
115	H43     0.3890     0.8680     1.8250	H	1	PTX1     0.0900
116	H44    -0.3680     1.3050     3.3200	H	1	PTX1     0.0900
117	H45    -2.4250    -0.6220     3.6450	H	1	PTX1     0.0900
118	H46    -2.5580     1.1380     3.8800	H	1	PTX1     0.0900
119	H47    -3.7990     0.2450     3.0220	H	1	PTX1     0.0900
120	H48    -6.8660     2.6510     0.8540	H	1	PTX1     0.0900
121	H49    -8.0290     1.3250    -0.9620	H	1	PTX1     0.4000
122	H50    -6.9700     0.4840     2.1420	H	1	PTX1     0.0900
123	H51    -8.4250     0.7690     1.1460	H	1	PTX1     0.0900
124	H52    -7.6190    -1.6080     1.0120	H	1	PTX1     0.0900
125	H53    -6.2600    -2.0720    -1.9410	H	1	PTX1     0.0900
126	H54    -5.9450    -0.2800    -2.0430	H	1	PTX1     0.0900
127	H55    -3.9900    -4.5930     0.7080	H	1	PTX1     0.0900
128	H56    -5.0310    -4.3880     2.1770	H	1	PTX1     0.0900
129	H57    -5.4750    -5.5920     0.9100	H	1	PTX1     0.0900
130	H58     4.7800     2.3280    -1.4340	H	1	PTX1     0.0900
131	H59     2.0920     2.9680    -0.8940	H	1	PTX1     0.2740
132	H60     3.2180     5.7810     2.3310	H	1	PTX1     0.1150
133	H61     5.1690     6.5690     3.4570	H	1	PTX1     0.1150
134	H62     7.4020     5.9970     2.6430	H	1	PTX1     0.1150
135	H63     7.6350     4.6340     0.6270	H	1	PTX1     0.1150
136	H64     5.7210     3.8680    -0.5500	H	1	PTX1     0.1150
137	H65     2.8750     2.0260     1.7980	H	1	PTX1     0.1150
138	H66     3.8760     1.3200     3.8780	H	1	PTX1     0.1150
139	H67     6.1680     0.4640     3.9210	H	1	PTX1     0.1150
140	H68     7.4480     0.3240     1.8390	H	1	PTX1     0.1150
141	H69     6.4510     1.0350    -0.2550	H	1	PTX1     0.1150
@<TRIPOS>BOND
1	1	2	1
2	1	11	1
3	1	12	1
4	1	13	1
5	2	3	1
6	2	14	1
7	2	15	1
8	3	4	1
9	3	16	1
10	3	17	1
11	4	5	1
12	4	18	1
13	4	19	1
14	5	6	1
15	5	20	1
16	5	21	1
17	6	7	1
18	6	22	1
19	6	23	1
20	7	8	1
21	7	10	1
22	7	78	1
23	8	24	1
24	8	25	1
25	8	26	1
26	9	27	1
27	9	28	1
28	9	29	1
29	9	10	1
30	30	65	1
31	30	131	1
32	31	32	1
33	31	64	1
34	31	92	1
35	32	79	2
36	32	80	1
37	33	34	1
38	33	52	1
39	33	93	1
40	34	35	1
41	34	94	1
42	34	95	1
43	35	36	1
44	35	54	1
45	35	81	1
46	36	44	1
47	36	82	1
48	36	97	1
49	37	38	1
50	37	83	2
51	38	39	1
52	38	43	2
53	39	40	2
54	39	98	1
55	40	41	1
56	40	99	1
57	41	42	2
58	41	100	1
59	42	43	1
60	42	101	1
61	43	102	1
62	44	45	1
63	44	61	1
64	44	103	1
65	45	46	1
66	45	47	1
67	45	57	1
68	46	104	1
69	46	105	1
70	46	106	1
71	47	48	1
72	47	84	2
73	48	51	1
74	48	85	1
75	48	107	1
76	49	50	1
77	49	86	2
78	50	108	1
79	50	109	1
80	50	110	1
81	51	52	2
82	51	54	1
83	52	53	1
84	53	111	1
85	53	112	1
86	53	113	1
87	54	55	1
88	54	56	1
89	55	114	1
90	55	115	1
91	55	116	1
92	56	117	1
93	56	118	1
94	56	119	1
95	57	58	1
96	57	87	1
97	57	120	1
98	58	59	1
99	58	122	1
100	58	123	1
101	59	61	1
102	59	88	1
103	59	124	1
104	60	61	1
105	60	125	1
106	60	126	1
107	61	89	1
108	62	63	1
109	62	90	2
110	63	127	1
111	63	128	1
112	63	129	1
113	30	64	1
114	64	72	1
115	64	130	1
116	65	66	1
117	65	91	2
118	66	67	1
119	66	71	2
120	67	68	2
121	67	132	1
122	68	69	1
123	68	133	1
124	69	70	2
125	69	134	1
126	70	71	1
127	70	135	1
128	71	136	1
129	72	73	1
130	72	77	2
131	73	74	2
132	73	137	1
133	74	75	1
134	74	138	1
135	75	76	2
136	75	139	1
137	76	77	1
138	76	140	1
139	77	141	1
140	31	78	1
141	33	80	1
142	81	96	1
143	37	82	1
144	49	85	1
145	87	121	1
146	60	88	1
147	62	89	1
