# created with PyMOL 2.5.4
@<TRIPOS>MOLECULE
DTX
138 143 2               
SMALL
USER_CHARGES
@<TRIPOS>ATOM
1	   C	-3.233	3.834	-4.358	C.3	1	DTL1	0.000	
2	   C	-2.833	3.910	-2.879	C.3	1	DTL1	0.000	
3	   C	-1.370	4.349	-2.702	C.3	1	DTL1	0.000	
4	   C	-0.957	4.352	-1.222	C.3	1	DTL1	0.000	
5	   C	0.529	4.687	-1.014	C.3	1	DTL1	0.000	
6	   C	0.962	4.353	0.414	C.3	1	DTL1	0.000	
7	   C	2.980	3.804	1.556	C.3	1	DTL1	0.000	
8	   C	4.379	4.385	1.744	C.3	1	DTL1	0.000	
9	   C	2.208	3.824	2.872	C.3	1	DTL1	0.000	
10	   O	2.342	4.592	0.566	O.3	1	DTL1	0.000	
11	   H	-4.297	3.519	-4.467	 H	1	DTL1	0.000	
12	   H	-3.119	4.824	-4.856	 H	1	DTL1	0.000	
13	   H	-2.604	3.097	-4.906	 H	1	DTL1	0.000	
14	   H	-2.983	2.906	-2.414	 H	1	DTL1	0.000	
15	   H	-3.505	4.624	-2.347	 H	1	DTL1	0.000	
16	   H	-1.223	5.367	-3.132	 H	1	DTL1	0.000	
17	   H	-0.712	3.647	-3.268	 H	1	DTL1	0.000	
18	   H	-1.164	3.341	-0.802	 H	1	DTL1	0.000	
19	   H	-1.587	5.074	-0.651	 H	1	DTL1	0.000	
20	   H	0.715	5.764	-1.237	 H	1	DTL1	0.000	
21	   H	1.150	4.089	-1.723	 H	1	DTL1	0.000	
22	   H	0.729	3.281	0.596	 H	1	DTL1	0.000	
23	   H	0.399	4.978	1.144	 H	1	DTL1	0.000	
24	   H	4.986	3.798	2.468	 H	1	DTL1	0.000	
25	   H	4.325	5.429	2.129	 H	1	DTL1	0.000	
26	   H	4.942	4.416	0.784	 H	1	DTL1	0.000	
27	   H	1.975	4.872	3.169	 H	1	DTL1	0.000	
28	   H	1.247	3.268	2.830	 H	1	DTL1	0.000	
29	   H	2.793	3.395	3.715	 H	1	DTL1	0.000	
30	   N	4.819	-0.591	1.611	N.pl3	2	DTX1	0.000	
31	   C	3.508	1.447	1.706	C.3	2	DTX1	0.000	
32	   C	2.303	0.531	1.963	C.2	2	DTX1	0.000	
33	   C	0.897	-0.950	0.725	C.3	2	DTX1	0.000	
34	   C	-0.228	0.095	0.594	C.3	2	DTX1	0.000	
35	   C	-1.182	-0.228	-0.570	C.3	2	DTX1	0.000	
36	   C	-2.034	-1.459	-0.161	C.3	2	DTX1	0.000	
37	   C	-2.699	-1.609	2.198	C.2	2	DTX1	0.000	
38	   C	-3.524	-1.174	3.199	C.2	2	DTX1	0.000	
39	   C	-3.431	-1.650	4.457	C.2	2	DTX1	0.000	
40	   C	-4.253	-1.208	5.423	C.2	2	DTX1	0.000	
41	   C	-5.184	-0.283	5.148	C.2	2	DTX1	0.000	
42	   C	-5.287	0.199	3.901	C.2	2	DTX1	0.000	
43	   C	-4.463	-0.243	2.938	C.2	2	DTX1	0.000	
44	   C	-2.900	-2.109	-1.266	C.3	2	DTX1	0.000	
45	   C	-2.379	-3.474	-1.842	C.3	2	DTX1	0.000	
46	   C	-1.672	-4.403	-0.829	C.3	2	DTX1	0.000	
47	   C	-1.337	-3.183	-2.965	C.2	2	DTX1	0.000	
48	   C	0.120	-2.722	-2.739	C.3	2	DTX1	0.000	
49	   C	0.361	-1.719	-1.625	C.2	2	DTX1	0.000	
50	   C	0.993	-1.939	-0.445	C.2	2	DTX1	0.000	
51	   C	1.747	-3.184	-0.020	C.3	2	DTX1	0.000	
52	   C	-0.294	-0.352	-1.839	C.3	2	DTX1	0.000	
53	   C	0.842	0.711	-1.947	C.3	2	DTX1	0.000	
54	   C	-1.009	-0.072	-3.196	C.3	2	DTX1	0.000	
55	   C	-3.544	-4.307	-2.450	C.3	2	DTX1	0.000	
56	   C	-4.656	-3.466	-3.065	C.3	2	DTX1	0.000	
57	   C	-5.351	-2.577	-2.047	C.3	2	DTX1	0.000	
58	   C	-5.139	-2.716	-0.035	C.3	2	DTX1	0.000	
59	   C	-4.410	-1.861	-1.075	C.3	2	DTX1	0.000	
60	   C	-5.851	0.110	-0.790	C.2	2	DTX1	0.000	
61	   C	-5.662	1.617	-0.806	C.3	2	DTX1	0.000	
62	   C	4.696	0.741	1.012	C.3	2	DTX1	0.000	
63	   C	5.562	-0.856	2.729	C.2	2	DTX1	0.000	
64	   C	5.450	-2.302	3.220	C.3	2	DTX1	0.000	
65	   C	3.989	-2.554	3.645	C.3	2	DTX1	0.000	
66	   C	5.842	-3.258	2.078	C.3	2	DTX1	0.000	
67	   C	6.379	-2.541	4.426	C.3	2	DTX1	0.000	
68	   C	4.576	0.605	-0.504	C.2	2	DTX1	0.000	
69	   C	4.277	-0.558	-1.114	C.2	2	DTX1	0.000	
70	   C	4.166	-0.649	-2.448	C.2	2	DTX1	0.000	
71	   C	4.370	0.431	-3.215	C.2	2	DTX1	0.000	
72	   C	4.695	1.594	-2.633	C.2	2	DTX1	0.000	
73	   C	4.801	1.670	-1.297	C.2	2	DTX1	0.000	
74	   O	3.073	2.542	0.934	O.3	2	DTX1	0.000	
75	   O	1.550	0.637	2.905	O.co2	2	DTX1	0.000	
76	   O	2.151	-0.349	0.940	O.3	2	DTX1	0.000	
77	   O	-2.074	0.842	-0.721	O.3	2	DTX1	0.000	
78	   O	-2.839	-1.089	0.930	O.3	2	DTX1	0.000	
79	   O	-1.847	-2.447	2.421	O.co2	2	DTX1	0.000	
80	   O	-1.635	-3.319	-4.133	O.2	2	DTX1	0.000	
81	   O	0.946	-3.878	-2.756	O.3	2	DTX1	0.000	
82	   O	-4.113	-5.162	-1.482	O.3	2	DTX1	0.000	
83	   O	-5.966	-3.317	-1.016	O.3	2	DTX1	0.000	
84	   O	-4.650	-0.486	-1.020	O.3	2	DTX1	0.000	
85	   O	-6.912	-0.437	-0.598	O.co2	2	DTX1	0.000	
86	   O	6.220	-0.007	3.277	O.2	2	DTX1	0.000	
87	   H	3.864	1.775	2.708	 H	2	DTX1	0.000	
88	   H	0.665	-1.569	1.627	 H	2	DTX1	0.000	
89	   H	-0.782	0.194	1.554	 H	2	DTX1	0.000	
90	   H	0.181	1.119	0.455	 H	2	DTX1	0.000	
91	   H	-2.644	0.883	0.054	 H	2	DTX1	0.000	
92	   H	-1.336	-2.236	0.182	 H	2	DTX1	0.000	
93	   H	-2.687	-2.411	4.743	 H	2	DTX1	0.000	
94	   H	-4.165	-1.607	6.448	 H	2	DTX1	0.000	
95	   H	-5.859	0.079	5.941	 H	2	DTX1	0.000	
96	   H	-6.050	0.961	3.669	 H	2	DTX1	0.000	
97	   H	-4.594	0.189	1.932	 H	2	DTX1	0.000	
98	   H	-2.807	-1.434	-2.140	 H	2	DTX1	0.000	
99	   H	-2.250	-4.508	0.117	 H	2	DTX1	0.000	
100	   H	-1.514	-5.421	-1.253	 H	2	DTX1	0.000	
101	   H	-0.659	-4.069	-0.543	 H	2	DTX1	0.000	
102	   H	0.457	-2.189	-3.661	 H	2	DTX1	0.000	
103	   H	0.886	-4.294	-3.620	 H	2	DTX1	0.000	
104	   H	1.161	-3.768	0.723	 H	2	DTX1	0.000	
105	   H	2.058	-3.868	-0.828	 H	2	DTX1	0.000	
106	   H	2.699	-2.905	0.481	 H	2	DTX1	0.000	
107	   H	0.430	1.744	-1.965	 H	2	DTX1	0.000	
108	   H	1.610	0.693	-1.156	 H	2	DTX1	0.000	
109	   H	1.446	0.578	-2.873	 H	2	DTX1	0.000	
110	   H	-1.497	0.929	-3.193	 H	2	DTX1	0.000	
111	   H	-0.303	-0.058	-4.056	 H	2	DTX1	0.000	
112	   H	-1.783	-0.777	-3.536	 H	2	DTX1	0.000	
113	   H	-3.155	-5.014	-3.223	 H	2	DTX1	0.000	
114	   H	-5.064	-5.222	-1.600	 H	2	DTX1	0.000	
115	   H	-4.239	-2.817	-3.870	 H	2	DTX1	0.000	
116	   H	-5.414	-4.128	-3.547	 H	2	DTX1	0.000	
117	   H	-6.110	-1.925	-2.535	 H	2	DTX1	0.000	
118	   H	-5.744	-2.179	0.723	 H	2	DTX1	0.000	
119	   H	-4.496	-3.480	0.450	 H	2	DTX1	0.000	
120	   H	-4.882	1.923	-0.073	 H	2	DTX1	0.000	
121	   H	-5.356	1.954	-1.822	 H	2	DTX1	0.000	
122	   H	-6.609	2.137	-0.538	 H	2	DTX1	0.000	
123	   H	5.630	1.328	1.189	 H	2	DTX1	0.000	
124	   H	4.209	-1.318	1.237	 H	2	DTX1	0.000	
125	   H	3.859	-3.588	4.038	 H	2	DTX1	0.000	
126	   H	3.675	-1.845	4.444	 H	2	DTX1	0.000	
127	   H	3.278	-2.437	2.798	 H	2	DTX1	0.000	
128	   H	5.805	-4.319	2.414	 H	2	DTX1	0.000	
129	   H	6.878	-3.053	1.722	 H	2	DTX1	0.000	
130	   H	5.161	-3.174	1.202	 H	2	DTX1	0.000	
131	   H	6.117	-1.882	5.285	 H	2	DTX1	0.000	
132	   H	6.306	-3.592	4.787	 H	2	DTX1	0.000	
133	   H	7.445	-2.356	4.162	 H	2	DTX1	0.000	
134	   H	4.109	-1.479	-0.540	 H	2	DTX1	0.000	
135	   H	3.906	-1.613	-2.917	 H	2	DTX1	0.000	
136	   H	4.279	0.362	-4.312	 H	2	DTX1	0.000	
137	   H	4.877	2.487	-3.254	 H	2	DTX1	0.000	
138	   H	5.083	2.639	-0.854	 H	2	DTX1	0.000	
@<TRIPOS>BOND
1 1 2 1
2 1 11 1
3 1 12 1
4 1 13 1
5 2 3 1
6 2 14 1
7 2 15 1
8 3 4 1
9 3 16 1
10 3 17 1
11 4 5 1
12 4 18 1
13 4 19 1
14 5 6 1
15 5 20 1
16 5 21 1
17 6 10 1
18 6 22 1
19 6 23 1
20 7 8 1
21 7 9 1
22 7 74 1
23 8 24 1
24 8 25 1
25 8 26 1
26 9 27 1
27 9 28 1
28 9 29 1
29 7 10 1
30 30 63 1
31 30 124 1
32 31 32 1
33 31 62 1
34 31 87 1
35 32 75 2
36 32 76 1
37 33 34 1
38 33 50 1
39 33 88 1
40 34 35 1
41 34 89 1
42 34 90 1
43 35 36 1
44 35 52 1
45 35 77 1
46 36 44 1
47 36 78 1
48 36 92 1
49 37 38 1
50 37 79 2
51 38 39 1
52 38 43 2
53 39 40 2
54 39 93 1
55 40 41 1
56 40 94 1
57 41 42 2
58 41 95 1
59 42 43 1
60 42 96 1
61 43 97 1
62 44 45 1
63 44 59 1
64 44 98 1
65 45 46 1
66 45 47 1
67 45 55 1
68 46 99 1
69 46 100 1
70 46 101 1
71 47 48 1
72 47 80 2
73 48 49 1
74 48 81 1
75 48 102 1
76 49 50 2
77 49 52 1
78 50 51 1
79 51 104 1
80 51 105 1
81 51 106 1
82 52 53 1
83 52 54 1
84 53 107 1
85 53 108 1
86 53 109 1
87 54 110 1
88 54 111 1
89 54 112 1
90 55 56 1
91 55 82 1
92 55 113 1
93 56 57 1
94 56 115 1
95 56 116 1
96 57 59 1
97 57 83 1
98 57 117 1
99 58 59 1
100 58 118 1
101 58 119 1
102 59 84 1
103 60 61 1
104 60 85 2
105 61 120 1
106 61 121 1
107 61 122 1
108 30 62 1
109 62 68 1
110 62 123 1
111 63 64 1
112 63 86 2
113 64 65 1
114 64 66 1
115 64 67 1
116 65 125 1
117 65 126 1
118 65 127 1
119 66 128 1
120 66 129 1
121 66 130 1
122 67 131 1
123 67 132 1
124 67 133 1
125 68 69 1
126 68 73 2
127 69 70 2
128 69 134 1
129 70 71 1
130 70 135 1
131 71 72 2
132 71 136 1
133 72 73 1
134 72 137 1
135 73 138 1
136 31 74 1
137 33 76 1
138 77 91 1
139 37 78 1
140 81 103 1
141 82 114 1
142 58 83 1
143 60 84 1
@<TRIPOS>SUBSTRUCTURE
1	DTL1	1	GROUP	1 ****	DTL
2	DTX1	30	GROUP	1 ****	DTX
