@<TRIPOS>MOLECULE
DTX 
138 143 0 0 0
SMALL
USER_CHARGES
#CGenFF output mol2 file
@<TRIPOS>ATOM
1	C1    -3.2330     3.8340    -4.3580	C.3	1	DTX1    -0.2730
2	C2    -2.8330     3.9100    -2.8790	C.3	1	DTX1    -0.1770
3	C3    -1.3700     4.3490    -2.7020	C.3	1	DTX1    -0.1810
4	C4    -0.9570     4.3520    -1.2220	C.3	1	DTX1    -0.1790
5	C5     0.5290     4.6870    -1.0140	C.3	1	DTX1    -0.1800
6	C6     0.9620     4.3530     0.4140	C.3	1	DTX1     0.0360
7	C7     2.9800     3.8040     1.5560	C.3	1	DTX1     0.3910
8	C8     4.3790     4.3850     1.7440	C.3	1	DTX1    -0.2690
9	C9     2.2080     3.8240     2.8720	C.3	1	DTX1    -0.2690
10	O1     2.3420     4.5920     0.5660	O.3	1	DTX1    -0.4020
11	H1    -4.2970     3.5190    -4.4670	H	1	DTX1     0.0900
12	H2    -3.1190     4.8240    -4.8560	H	1	DTX1     0.0900
13	H3    -2.6040     3.0970    -4.9060	H	1	DTX1     0.0900
14	H4    -2.9830     2.9060    -2.4140	H	1	DTX1     0.0900
15	H5    -3.5050     4.6240    -2.3470	H	1	DTX1     0.0900
16	H6    -1.2230     5.3670    -3.1320	H	1	DTX1     0.0900
17	H7    -0.7120     3.6470    -3.2680	H	1	DTX1     0.0900
18	H8    -1.1640     3.3410    -0.8020	H	1	DTX1     0.0900
19	H9    -1.5870     5.0740    -0.6510	H	1	DTX1     0.0900
20	H10     0.7150     5.7640    -1.2370	H	1	DTX1     0.0900
21	H11     1.1500     4.0890    -1.7230	H	1	DTX1     0.0900
22	H12     0.7290     3.2810     0.5960	H	1	DTX1     0.0900
23	H13     0.3990     4.9780     1.1440	H	1	DTX1     0.0900
24	H14     4.9860     3.7980     2.4680	H	1	DTX1     0.0900
25	H15     4.3250     5.4290     2.1290	H	1	DTX1     0.0900
26	H16     4.9420     4.4160     0.7840	H	1	DTX1     0.0900
27	H17     1.9750     4.8720     3.1690	H	1	DTX1     0.0900
28	H18     1.2470     3.2680     2.8300	H	1	DTX1     0.0900
29	H19     2.7930     3.3950     3.7150	H	1	DTX1     0.0900
30	N     4.8190    -0.5910     1.6110	N.pl3	1	DTX1    -0.5470
31	C10     3.5080     1.4470     1.7060	C.3	1	DTX1     0.1830
32	C11     2.3030     0.5310     1.9630	C.2	1	DTX1     0.8500
33	C12     0.8970    -0.9500     0.7250	C.3	1	DTX1     0.2720
34	C13    -0.2280     0.0950     0.5940	C.3	1	DTX1    -0.2120
35	C14    -1.1820    -0.2280    -0.5700	C.3	1	DTX1     0.1860
36	C15    -2.0340    -1.4590    -0.1610	C.3	1	DTX1     0.1330
37	C16    -2.6990    -1.6090     2.1980	C.2	1	DTX1     0.4590
38	C17    -3.5240    -1.1740     3.1990	C.2	1	DTX1     0.0860
39	C18    -3.4310    -1.6500     4.4570	C.2	1	DTX1    -0.1100
40	C19    -4.2530    -1.2080     5.4230	C.2	1	DTX1    -0.1140
41	C20    -5.1840    -0.2830     5.1480	C.2	1	DTX1    -0.1150
42	C21    -5.2870     0.1990     3.9010	C.2	1	DTX1    -0.1140
43	C22    -4.4630    -0.2430     2.9380	C.2	1	DTX1    -0.1100
44	C23    -2.9000    -2.1090    -1.2660	C.3	1	DTX1    -0.0740
45	C24    -2.3790    -3.4740    -1.8420	C.3	1	DTX1     0.0810
46	C25    -1.6720    -4.4030    -0.8290	C.3	1	DTX1    -0.2630
47	C26    -1.3370    -3.1830    -2.9650	C.2	1	DTX1     0.3310
48	C27     0.1200    -2.7220    -2.7390	C.3	1	DTX1     0.3760
49	C28     0.3610    -1.7190    -1.6250	C.2	1	DTX1    -0.0970
50	C29     0.9930    -1.9390    -0.4450	C.2	1	DTX1    -0.1580
51	C30     1.7470    -3.1840    -0.0200	C.3	1	DTX1    -0.2650
52	C31    -0.2940    -0.3520    -1.8390	C.3	1	DTX1     0.0160
53	C32     0.8420     0.7110    -1.9470	C.3	1	DTX1    -0.2690
54	C33    -1.0090    -0.0720    -3.1960	C.3	1	DTX1    -0.2690
55	C34    -3.5440    -4.3070    -2.4500	C.3	1	DTX1     0.1660
56	C35    -4.6560    -3.4660    -3.0650	C.3	1	DTX1    -0.2010
57	C36    -5.3510    -2.5770    -2.0470	C.3	1	DTX1     0.0150
58	C37    -5.1390    -2.7160    -0.0350	C.3	1	DTX1    -0.1060
59	C38    -4.4100    -1.8610    -1.0750	C.3	1	DTX1     0.3660
60	C39    -5.8510     0.1100    -0.7900	C.2	1	DTX1     0.8850
61	C40    -5.6620     1.6170    -0.8060	C.3	1	DTX1    -0.3130
62	C41     4.6960     0.7410     1.0120	C.3	1	DTX1     0.1360
63	C42     5.5620    -0.8560     2.7290	C.2	1	DTX1     0.6380
64	C43     5.4500    -2.3020     3.2200	C.3	1	DTX1    -0.0540
65	C44     3.9890    -2.5540     3.6450	C.3	1	DTX1    -0.2730
66	C45     5.8420    -3.2580     2.0780	C.3	1	DTX1    -0.2730
67	C46     6.3790    -2.5410     4.4260	C.3	1	DTX1    -0.2730
68	C47     4.5760     0.6050    -0.5040	C.2	1	DTX1    -0.0400
69	C48     4.2770    -0.5580    -1.1140	C.2	1	DTX1    -0.1060
70	C49     4.1660    -0.6490    -2.4480	C.2	1	DTX1    -0.1150
71	C50     4.3700     0.4310    -3.2150	C.2	1	DTX1    -0.1150
72	C51     4.6950     1.5940    -2.6330	C.2	1	DTX1    -0.1150
73	C52     4.8010     1.6700    -1.2970	C.2	1	DTX1    -0.1060
74	O2     3.0730     2.5420     0.9340	O.3	1	DTX1    -0.5060
75	O3     1.5500     0.6370     2.9050	O.co2	1	DTX1    -0.6230
76	O4     2.1510    -0.3490     0.9400	O.3	1	DTX1    -0.4320
77	O5    -2.0740     0.8420    -0.7210	O.3	1	DTX1    -0.4600
78	O6    -2.8390    -1.0890     0.9300	O.3	1	DTX1    -0.3100
79	O7    -1.8470    -2.4470     2.4210	O.co2	1	DTX1    -0.4960
80	O8    -1.6350    -3.3190    -4.1330	O.2	1	DTX1    -0.5150
81	O9     0.9460    -3.8780    -2.7560	O.3	1	DTX1    -0.6120
82	O10    -4.1130    -5.1620    -1.4820	O.3	1	DTX1    -0.6420
83	O11    -5.9660    -3.3170    -1.0160	O.3	1	DTX1    -0.3430
84	O12    -4.6500    -0.4860    -1.0200	O.3	1	DTX1    -0.4220
85	O13    -6.9120    -0.4370    -0.5980	O.co2	1	DTX1    -0.6170
86	O14     6.2200    -0.0070     3.2770	O.2	1	DTX1    -0.5110
87	H20     3.8640     1.7750     2.7080	H	1	DTX1     0.0900
88	H21     0.6650    -1.5690     1.6270	H	1	DTX1     0.0900
89	H22    -0.7820     0.1940     1.5540	H	1	DTX1     0.0900
90	H23     0.1810     1.1190     0.4550	H	1	DTX1     0.0900
91	H24    -2.6440     0.8830     0.0540	H	1	DTX1     0.2920
92	H25    -1.3360    -2.2360     0.1820	H	1	DTX1     0.0900
93	H26    -2.6870    -2.4110     4.7430	H	1	DTX1     0.1150
94	H27    -4.1650    -1.6070     6.4480	H	1	DTX1     0.1150
95	H28    -5.8590     0.0790     5.9410	H	1	DTX1     0.1150
96	H29    -6.0500     0.9610     3.6690	H	1	DTX1     0.1150
97	H30    -4.5940     0.1890     1.9320	H	1	DTX1     0.1150
98	H31    -2.8070    -1.4340    -2.1400	H	1	DTX1     0.0900
99	H32    -2.2500    -4.5080     0.1170	H	1	DTX1     0.0900
100	H33    -1.5140    -5.4210    -1.2530	H	1	DTX1     0.0900
101	H34    -0.6590    -4.0690    -0.5430	H	1	DTX1     0.0900
102	H35     0.4570    -2.1890    -3.6610	H	1	DTX1     0.0900
103	H36     0.8860    -4.2940    -3.6200	H	1	DTX1     0.3640
104	H37     1.1610    -3.7680     0.7230	H	1	DTX1     0.0900
105	H38     2.0580    -3.8680    -0.8280	H	1	DTX1     0.0900
106	H39     2.6990    -2.9050     0.4810	H	1	DTX1     0.0900
107	H40     0.4300     1.7440    -1.9650	H	1	DTX1     0.0900
108	H41     1.6100     0.6930    -1.1560	H	1	DTX1     0.0900
109	H42     1.4460     0.5780    -2.8730	H	1	DTX1     0.0900
110	H43    -1.4970     0.9290    -3.1930	H	1	DTX1     0.0900
111	H44    -0.3030    -0.0580    -4.0560	H	1	DTX1     0.0900
112	H45    -1.7830    -0.7770    -3.5360	H	1	DTX1     0.0900
113	H46    -3.1550    -5.0140    -3.2230	H	1	DTX1     0.0900
114	H47    -5.0640    -5.2220    -1.6000	H	1	DTX1     0.4000
115	H48    -4.2390    -2.8170    -3.8700	H	1	DTX1     0.0900
116	H49    -5.4140    -4.1280    -3.5470	H	1	DTX1     0.0900
117	H50    -6.1100    -1.9250    -2.5350	H	1	DTX1     0.0900
118	H51    -5.7440    -2.1790     0.7230	H	1	DTX1     0.0900
119	H52    -4.4960    -3.4800     0.4500	H	1	DTX1     0.0900
120	H53    -4.8820     1.9230    -0.0730	H	1	DTX1     0.0900
121	H54    -5.3560     1.9540    -1.8220	H	1	DTX1     0.0900
122	H55    -6.6090     2.1370    -0.5380	H	1	DTX1     0.0900
123	H56     5.6300     1.3280     1.1890	H	1	DTX1     0.0900
124	H57     4.2090    -1.3180     1.2370	H	1	DTX1     0.2840
125	H58     3.8590    -3.5880     4.0380	H	1	DTX1     0.0900
126	H59     3.6750    -1.8450     4.4440	H	1	DTX1     0.0900
127	H60     3.2780    -2.4370     2.7980	H	1	DTX1     0.0900
128	H61     5.8050    -4.3190     2.4140	H	1	DTX1     0.0900
129	H62     6.8780    -3.0530     1.7220	H	1	DTX1     0.0900
130	H63     5.1610    -3.1740     1.2020	H	1	DTX1     0.0900
131	H64     6.1170    -1.8820     5.2850	H	1	DTX1     0.0900
132	H65     6.3060    -3.5920     4.7870	H	1	DTX1     0.0900
133	H66     7.4450    -2.3560     4.1620	H	1	DTX1     0.0900
134	H67     4.1090    -1.4790    -0.5400	H	1	DTX1     0.1150
135	H68     3.9060    -1.6130    -2.9170	H	1	DTX1     0.1150
136	H69     4.2790     0.3620    -4.3120	H	1	DTX1     0.1150
137	H70     4.8770     2.4870    -3.2540	H	1	DTX1     0.1150
138	H71     5.0830     2.6390    -0.8540	H	1	DTX1     0.1150
@<TRIPOS>BOND
1	1	2	1
2	1	11	1
3	1	12	1
4	1	13	1
5	2	3	1
6	2	14	1
7	2	15	1
8	3	4	1
9	3	16	1
10	3	17	1
11	4	5	1
12	4	18	1
13	4	19	1
14	5	6	1
15	5	20	1
16	5	21	1
17	6	10	1
18	6	22	1
19	6	23	1
20	7	8	1
21	7	9	1
22	7	74	1
23	8	24	1
24	8	25	1
25	8	26	1
26	9	27	1
27	9	28	1
28	9	29	1
29	7	10	1
30	30	63	1
31	30	124	1
32	31	32	1
33	31	62	1
34	31	87	1
35	32	75	2
36	32	76	1
37	33	34	1
38	33	50	1
39	33	88	1
40	34	35	1
41	34	89	1
42	34	90	1
43	35	36	1
44	35	52	1
45	35	77	1
46	36	44	1
47	36	78	1
48	36	92	1
49	37	38	1
50	37	79	2
51	38	39	1
52	38	43	2
53	39	40	2
54	39	93	1
55	40	41	1
56	40	94	1
57	41	42	2
58	41	95	1
59	42	43	1
60	42	96	1
61	43	97	1
62	44	45	1
63	44	59	1
64	44	98	1
65	45	46	1
66	45	47	1
67	45	55	1
68	46	99	1
69	46	100	1
70	46	101	1
71	47	48	1
72	47	80	2
73	48	49	1
74	48	81	1
75	48	102	1
76	49	50	2
77	49	52	1
78	50	51	1
79	51	104	1
80	51	105	1
81	51	106	1
82	52	53	1
83	52	54	1
84	53	107	1
85	53	108	1
86	53	109	1
87	54	110	1
88	54	111	1
89	54	112	1
90	55	56	1
91	55	82	1
92	55	113	1
93	56	57	1
94	56	115	1
95	56	116	1
96	57	59	1
97	57	83	1
98	57	117	1
99	58	59	1
100	58	118	1
101	58	119	1
102	59	84	1
103	60	61	1
104	60	85	2
105	61	120	1
106	61	121	1
107	61	122	1
108	30	62	1
109	62	68	1
110	62	123	1
111	63	64	1
112	63	86	2
113	64	65	1
114	64	66	1
115	64	67	1
116	65	125	1
117	65	126	1
118	65	127	1
119	66	128	1
120	66	129	1
121	66	130	1
122	67	131	1
123	67	132	1
124	67	133	1
125	68	69	1
126	68	73	2
127	69	70	2
128	69	134	1
129	70	71	1
130	70	135	1
131	71	72	2
132	71	136	1
133	72	73	1
134	72	137	1
135	73	138	1
136	31	74	1
137	33	76	1
138	77	91	1
139	37	78	1
140	81	103	1
141	82	114	1
142	58	83	1
143	60	84	1
