@<TRIPOS>MOLECULE
CBZ
116 121 1 0 0
SMALL
USER_CHARGES


@<TRIPOS>ATOM
      1 C          10.9924   -0.2233   -4.7268 C.3       1     CBZ    0.0000
      2 O           9.9263    0.0592   -3.8454 O.3       1     CBZ    0.0000
      3 C           9.7465   -0.8649   -2.8000 C.3       1     CBZ    0.0000
      4 C          10.9654   -0.9311   -1.8761 C.3       1     CBZ    0.0000
      5 C          11.2557    0.3596   -1.1293 C.3       1     CBZ    0.0000
      6 O          11.5210    1.4594   -1.9689 O.3       1     CBZ    0.0000
      7 C          10.3628    2.1376   -1.5149 C.3       1     CBZ    0.0000
      8 C          10.0179    1.0235   -0.5239 C.3       1     CBZ    0.0000
      9 O          10.2010    1.3052    0.8329 O.3       1     CBZ    0.0000
     10 C          11.2150    2.0366    1.3700 C.2       1     CBZ    0.0000
     11 C          11.0282    2.1055    2.8751 C.3       1     CBZ    0.0000
     12 O          12.1307    2.5625    0.7815 O.2       1     CBZ    0.0000
     13 C           8.6736    0.2964   -0.7247 C.3       1     CBZ    0.0000
     14 C           7.4637    1.0994   -0.1835 C.3       1     CBZ    0.0000
     15 O           7.8433    2.4211    0.1053 O.3       1     CBZ    0.0000
     16 C           7.3730    3.5219   -0.5756 C.2       1     CBZ    0.0000
     17 O           6.6040    3.3792   -1.5064 O.2       1     CBZ    0.0000
     18 C           7.7733    4.7739   -0.1942 C.ar      1     CBZ    0.0000
     19 C           7.3426    5.8844   -0.8252 C.ar      1     CBZ    0.0000
     20 C           7.7501    7.1021   -0.4323 C.ar      1     CBZ    0.0000
     21 C           8.5969    7.2321    0.5991 C.ar      1     CBZ    0.0000
     22 C           9.0334    6.1358    1.2353 C.ar      1     CBZ    0.0000
     23 C           8.6237    4.9199    0.8410 C.ar      1     CBZ    0.0000
     24 C           6.7196    0.5347    1.0555 C.3       1     CBZ    0.0000
     25 O           7.5440    0.7747    2.1641 O.3       1     CBZ    0.0000
     26 C           5.4134    1.3370    1.2353 C.3       1     CBZ    0.0000
     27 C           4.3758    0.9893    0.1500 C.3       1     CBZ    0.0000
     28 O           3.0619    1.1978    0.6226 O.3       1     CBZ    0.0000
     29 C           2.1842    0.1812    0.8496 C.2       1     CBZ    0.0000
     30 O           2.3753   -0.9976    0.6594 O.2       1     CBZ    0.0000
     31 C           0.8678    0.7492    1.3856 C.3       1     CBZ    0.0000
     32 O           1.1219    1.5798    2.5055 O.3       1     CBZ    0.0000
     33 C          -0.1862   -0.2971    1.7781 C.3       1     CBZ    0.0000
     34 N          -0.2400   -1.3693    0.7791 N.am      1     CBZ    0.0000
     35 C          -1.1001   -1.3736   -0.2837 C.2       1     CBZ    0.0000
     36 O          -1.9039   -0.4924   -0.4596 O.2       1     CBZ    0.0000
     37 C          -0.9372   -2.5773   -1.2169 C.3       1     CBZ    0.0000
     38 C           0.4766   -2.5472   -1.8291 C.3       1     CBZ    0.0000
     39 C          -1.1335   -3.8710   -0.4032 C.3       1     CBZ    0.0000
     40 C          -1.9796   -2.5278   -2.3520 C.3       1     CBZ    0.0000
     41 C           0.1124   -0.8841    3.1474 C.ar      1     CBZ    0.0000
     42 C           0.8853   -1.9741    3.3122 C.ar      1     CBZ    0.0000
     43 C           1.1456   -2.4651    4.5340 C.ar      1     CBZ    0.0000
     44 C           0.6316   -1.8734    5.6219 C.ar      1     CBZ    0.0000
     45 C          -0.1462   -0.7910    5.4768 C.ar      1     CBZ    0.0000
     46 C          -0.4010   -0.3078    4.2514 C.ar      1     CBZ    0.0000
     47 C           4.6472   -0.2673   -0.6748 C.2       1     CBZ    0.0000
     48 C           3.7894   -0.3382   -1.9242 C.3       1     CBZ    0.0000
     49 C           5.6606   -1.1113   -0.3565 C.2       1     CBZ    0.0000
     50 C           6.2758   -2.1493   -1.2921 C.3       1     CBZ    0.0000
     51 O           5.5604   -2.3497   -2.5008 O.3       1     CBZ    0.0000
     52 C           5.9840   -3.4731   -3.2423 C.3       1     CBZ    0.0000
     53 C           7.7815   -1.9166   -1.5852 C.2       1     CBZ    0.0000
     54 O           8.4912   -2.8907   -1.4409 O.2       1     CBZ    0.0000
     55 C           8.4194   -0.5576   -2.0231 C.3       1     CBZ    0.0000
     56 C           7.4539    0.0882   -3.0450 C.3       1     CBZ    0.0000
     57 C           6.3079   -0.9625    1.0250 C.3       1     CBZ    0.0000
     58 C           5.2371   -1.3389    2.0989 C.3       1     CBZ    0.0000
     59 C           7.4048   -1.9853    1.4434 C.3       1     CBZ    0.0000
     60 H          10.9113    0.4775   -5.5877 H         1     CBZ    0.0000
     61 H          11.9744   -0.0426   -4.2415 H         1     CBZ    0.0000
     62 H          10.9224   -1.2638   -5.1127 H         1     CBZ    0.0000
     63 H           9.6287   -1.8512   -3.3131 H         1     CBZ    0.0000
     64 H          10.7946   -1.7190   -1.1053 H         1     CBZ    0.0000
     65 H          11.8785   -1.2659   -2.4175 H         1     CBZ    0.0000
     66 H          12.1062    0.2300   -0.4225 H         1     CBZ    0.0000
     67 H          10.6147    3.1302   -1.0903 H         1     CBZ    0.0000
     68 H           9.6307    2.2401   -2.3432 H         1     CBZ    0.0000
     69 H          10.0289    2.5267    3.1283 H         1     CBZ    0.0000
     70 H          11.1146    1.0883    3.3200 H         1     CBZ    0.0000
     71 H          11.8027    2.7552    3.3412 H         1     CBZ    0.0000
     72 H           8.8692   -0.4753    0.0469 H         1     CBZ    0.0000
     73 H           6.7203    1.1314   -0.9919 H         1     CBZ    0.0000
     74 H           6.6468    5.8421   -1.6793 H         1     CBZ    0.0000
     75 H           7.3886    8.0020   -0.9584 H         1     CBZ    0.0000
     76 H           8.9314    8.2322    0.9215 H         1     CBZ    0.0000
     77 H           9.7304    6.2356    2.0847 H         1     CBZ    0.0000
     78 H           9.0143    4.0547    1.4009 H         1     CBZ    0.0000
     79 H           7.8110    1.6993    2.1541 H         1     CBZ    0.0000
     80 H           5.6030    2.4347    1.2458 H         1     CBZ    0.0000
     81 H           5.0023    1.1787    2.2566 H         1     CBZ    0.0000
     82 H           4.5129    1.7943   -0.6207 H         1     CBZ    0.0000
     83 H           0.4502    1.3919    0.5746 H         1     CBZ    0.0000
     84 H           0.3463    1.6326    3.0673 H         1     CBZ    0.0000
     85 H          -1.1837    0.1997    1.8483 H         1     CBZ    0.0000
     86 H           0.5015   -2.0686    0.8224 H         1     CBZ    0.0000
     87 H           0.6098   -3.3647   -2.5731 H         1     CBZ    0.0000
     88 H           0.6695   -1.5816   -2.3496 H         1     CBZ    0.0000
     89 H           1.2690   -2.6831   -1.0604 H         1     CBZ    0.0000
     90 H          -1.0526   -4.7698   -1.0555 H         1     CBZ    0.0000
     91 H          -2.1372   -3.8929    0.0791 H         1     CBZ    0.0000
     92 H          -0.3706   -3.9826    0.4000 H         1     CBZ    0.0000
     93 H          -1.8617   -1.6137   -2.9773 H         1     CBZ    0.0000
     94 H          -1.8765   -3.4043   -3.0310 H         1     CBZ    0.0000
     95 H          -3.0195   -2.5424   -1.9535 H         1     CBZ    0.0000
     96 H           1.3295   -2.4969    2.4521 H         1     CBZ    0.0000
     97 H           1.7842   -3.3577    4.6459 H         1     CBZ    0.0000
     98 H           0.8445   -2.2748    6.6266 H         1     CBZ    0.0000
     99 H          -0.5760   -0.2996    6.3658 H         1     CBZ    0.0000
    100 H          -1.0460    0.5825    4.1648 H         1     CBZ    0.0000
    101 H           4.3063    0.0636   -2.8209 H         1     CBZ    0.0000
    102 H           3.4193   -1.3669   -2.1201 H         1     CBZ    0.0000
    103 H           2.8601    0.2634   -1.8190 H         1     CBZ    0.0000
    104 H           6.1691   -3.1021   -0.7186 H         1     CBZ    0.0000
    105 H           5.2970   -3.5833   -4.1109 H         1     CBZ    0.0000
    106 H           7.0129   -3.3191   -3.6343 H         1     CBZ    0.0000
    107 H           5.9262   -4.3962   -2.6247 H         1     CBZ    0.0000
    108 H           7.7552    1.1281   -3.3023 H         1     CBZ    0.0000
    109 H           7.3968   -0.5072   -3.9848 H         1     CBZ    0.0000
    110 H           6.4060    0.1557   -2.7076 H         1     CBZ    0.0000
    111 H           5.6178   -1.1843    3.1341 H         1     CBZ    0.0000
    112 H           4.2847   -0.7842    2.0556 H         1     CBZ    0.0000
    113 H           4.9199   -2.4031    2.0088 H         1     CBZ    0.0000
    114 H           7.7811   -1.7759    2.4701 H         1     CBZ    0.0000
    115 H           7.0210   -3.0300    1.4595 H         1     CBZ    0.0000
    116 H           8.3171   -2.0584    0.8341 H         1     CBZ    0.0000
@<TRIPOS>BOND
     1     1     2     1
     2     1    60     1
     3     1    61     1
     4     1    62     1
     5     2     3     1
     6     3     4     1
     7     3    55     1
     8     3    63     1
     9     4     5     1
    10     4    64     1
    11     4    65     1
    12     5     6     1
    13     5     8     1
    14     5    66     1
    15     6     7     1
    16     7     8     1
    17     7    67     1
    18     7    68     1
    19     8     9     1
    20     8    13     1
    21     9    10     1
    22    10    11     1
    23    10    12     2
    24    11    69     1
    25    11    70     1
    26    11    71     1
    27    13    14     1
    28    13    55     1
    29    13    72     1
    30    14    15     1
    31    14    24     1
    32    14    73     1
    33    15    16     1
    34    16    17     2
    35    16    18     1
    36    18    19     1
    37    18    23     2
    38    19    20     2
    39    19    74     1
    40    20    21     1
    41    20    75     1
    42    21    22     2
    43    21    76     1
    44    22    23     1
    45    22    77     1
    46    23    78     1
    47    24    25     1
    48    24    26     1
    49    24    57     1
    50    25    79     1
    51    26    27     1
    52    26    80     1
    53    26    81     1
    54    27    28     1
    55    27    47     1
    56    27    82     1
    57    28    29     1
    58    29    30     2
    59    29    31     1
    60    31    32     1
    61    31    33     1
    62    31    83     1
    63    32    84     1
    64    33    34     1
    65    33    41     1
    66    33    85     1
    67    34    35     1
    68    34    86     1
    69    35    36     2
    70    35    37     1
    71    37    38     1
    72    37    39     1
    73    37    40     1
    74    38    87     1
    75    38    88     1
    76    38    89     1
    77    39    90     1
    78    39    91     1
    79    39    92     1
    80    40    93     1
    81    40    94     1
    82    40    95     1
    83    41    42     1
    84    41    46     2
    85    42    43     2
    86    42    96     1
    87    43    44     1
    88    43    97     1
    89    44    45     2
    90    44    98     1
    91    45    46     1
    92    45    99     1
    93    46   100     1
    94    47    48     1
    95    47    49     2
    96    48   101     1
    97    48   102     1
    98    48   103     1
    99    49    50     1
   100    49    57     1
   101    50    51     1
   102    50    53     1
   103    50   104     1
   104    51    52     1
   105    52   105     1
   106    52   106     1
   107    52   107     1
   108    53    54     2
   109    53    55     1
   110    55    56     1
   111    56   108     1
   112    56   109     1
   113    56   110     1
   114    57    58     1
   115    57    59     1
   116    58   111     1
   117    58   112     1
   118    58   113     1
   119    59   114     1
   120    59   115     1
   121    59   116     1
