@<TRIPOS>MOLECULE
FUL
152 155 1 0 0
SMALL
USER_CHARGES


@<TRIPOS>ATOM
      1 C         -22.2752   -2.3995   -3.3871 C.3       1     FUD    0.0000
      2 C         -21.0188   -2.0121   -4.1783 C.3       1     FUD    0.0000
      3 C         -19.7317   -2.3832   -3.4246 C.3       1     FUD    0.0000
      4 C         -18.4697   -2.0009   -4.2152 C.3       1     FUD    0.0000
      5 C         -17.1841   -2.3655   -3.4549 C.3       1     FUD    0.0000
      6 C         -15.9197   -1.9908   -4.2455 C.3       1     FUD    0.0000
      7 C         -14.6372   -2.3417   -3.4736 C.3       1     FUD    0.0000
      8 C         -13.3687   -1.9763   -4.2619 C.3       1     FUD    0.0000
      9 C         -12.0918   -2.3060   -3.4718 C.3       1     FUD    0.0000
     10 C         -10.8164   -1.9510   -4.2537 C.3       1     FUD    0.0000
     11 C          -9.5483   -2.2516   -3.4384 C.3       1     FUD    0.0000
     12 C          -8.2636   -1.9078   -4.2098 C.3       1     FUD    0.0000
     13 C          -7.0077   -2.1708   -3.3632 C.3       1     FUD    0.0000
     14 C          -5.7114   -1.8383   -4.1202 C.3       1     FUD    0.0000
     15 C          -4.4715   -2.0552   -3.2377 C.3       1     FUD    0.0000
     16 C          -3.1619   -1.7352   -3.9768 C.3       1     FUD    0.0000
     17 C          -1.9419   -1.8989   -3.0560 C.3       1     FUD    0.0000
     18 C          -0.6253   -1.5929   -3.7721 C.3       1     FUD    0.0000
     19 O           0.4189   -1.7163   -2.8373 O.3       1     FUD    0.0000
     20 C           1.6976   -1.3126   -3.2828 C.3       1     FUD    0.0000
     21 C           2.6473   -1.6277   -2.1264 C.3       1     FUD    0.0000
     22 C           2.1329   -2.0642   -4.5356 C.3       1     FUD    0.0000
     23 O           1.6015    0.0738   -3.5210 O.3       1     FUL    0.0000
     24 C           2.7459    0.8117   -3.3735 C.ar      1     FUL    0.0000
     25 C           3.6485    0.9482   -4.3593 C.ar      1     FUL    0.0000
     26 C           4.7403    1.7110   -4.2066 C.ar      1     FUL    0.0000
     27 C           4.9595    2.4294   -3.0898 C.ar      1     FUL    0.0000
     28 C           4.0291    2.3573   -2.1145 C.ar      1     FUL    0.0000
     29 C           2.9448    1.5798   -2.2878 C.ar      1     FUL    0.0000
     30 C           4.1457    3.1298   -0.8178 C.3       1     FUL    0.0000
     31 C           5.5848    3.5634   -0.4956 C.3       1     FUL    0.0000
     32 C           6.4544    2.3935    0.0095 C.3       1     FUL    0.0000
     33 C           6.1169    1.9531    1.4452 C.3       1     FUL    0.0000
     34 C           7.0638    0.8525    1.9531 C.3       1     FUL    0.0000
     35 C           6.7284    0.4362    3.3947 C.3       1     FUL    0.0000
     36 C           7.6785   -0.6510    3.9225 C.3       1     FUL    0.0000
     37 C           7.3490   -1.0391    5.3732 C.3       1     FUL    0.0000
     38 C           8.3022   -2.1160    5.9166 C.3       1     FUL    0.0000
     39 C           7.9797   -2.4813    7.3756 C.3       1     FUL    0.0000
     40 C           8.9453   -3.5422    7.9246 C.3       1     FUL    0.0000
     41 S           8.5671   -4.0814    9.5766 S.o       1     FUL    0.0000
     42 O           9.1698   -5.3307   10.0180 O.2       1     FUL    0.0000
     43 C           8.7050   -2.6838   10.6683 C.3       1     FUL    0.0000
     44 C           8.3759   -3.0249   12.1315 C.3       1     FUL    0.0000
     45 C           8.4912   -1.7896   13.0451 C.3       1     FUL    0.0000
     46 C           8.1626   -2.0688   14.4814 C.3       1     FUL    0.0000
     47 F           8.9606   -3.0119   14.9507 F         1     FUL    0.0000
     48 F           6.9318   -2.5416   14.5741 F         1     FUL    0.0000
     49 C           8.2808   -0.8595   15.3532 C.3       1     FUL    0.0000
     50 F           7.4846    0.0924   14.9476 F         1     FUL    0.0000
     51 F           7.9925   -1.1059   16.6029 F         1     FUL    0.0000
     52 F           9.4900   -0.3687   15.3185 F         1     FUL    0.0000
     53 C           6.1106    4.2627   -1.7623 C.3       1     FUL    0.0000
     54 C           6.2192    3.2751   -2.9440 C.3       1     FUL    0.0000
     55 C           6.6704    4.0220   -4.2215 C.3       1     FUL    0.0000
     56 C           7.9517    4.8592   -4.0202 C.3       1     FUL    0.0000
     57 C           7.8204    5.8303   -2.8351 C.3       1     FUL    0.0000
     58 C           6.8266    6.9614   -3.1851 C.3       1     FUL    0.0000
     59 C           9.1374    6.4329   -2.3238 C.3       1     FUL    0.0000
     60 O           9.5539    7.5455   -3.0739 O.3       1     FUL    0.0000
     61 C           8.8595    6.8081   -0.8609 C.3       1     FUL    0.0000
     62 C           7.6446    5.9608   -0.4235 C.3       1     FUL    0.0000
     63 C           7.4478    4.9915   -1.5942 C.3       1     FUL    0.0000
     64 H         -23.1997   -2.1232   -3.9447 H         1     FUD    0.0000
     65 H         -22.3088   -3.4969   -3.1984 H         1     FUD    0.0000
     66 H         -22.3060   -1.8803   -2.4019 H         1     FUD    0.0000
     67 H         -21.0332   -0.9133   -4.3750 H         1     FUD    0.0000
     68 H         -21.0346   -2.5280   -5.1681 H         1     FUD    0.0000
     69 H         -19.7248   -3.4812   -3.2252 H         1     FUD    0.0000
     70 H         -19.7211   -1.8644   -2.4366 H         1     FUD    0.0000
     71 H         -18.4795   -0.9039   -4.4195 H         1     FUD    0.0000
     72 H         -18.4779   -2.5244   -5.2007 H         1     FUD    0.0000
     73 H         -17.1768   -3.4615   -3.2452 H         1     FUD    0.0000
     74 H         -17.1753   -1.8373   -2.4718 H         1     FUD    0.0000
     75 H         -15.9309   -0.8966   -4.4645 H         1     FUD    0.0000
     76 H         -15.9220   -2.5277   -5.2238 H         1     FUD    0.0000
     77 H         -14.6288   -3.4345   -3.2474 H         1     FUD    0.0000
     78 H         -14.6351   -1.7991   -2.4984 H         1     FUD    0.0000
     79 H         -13.3831   -0.8866   -4.5019 H         1     FUD    0.0000
     80 H         -13.3605   -2.5319   -5.2296 H         1     FUD    0.0000
     81 H         -12.0810   -3.3940   -3.2233 H         1     FUD    0.0000
     82 H         -12.1016   -1.7438   -2.5078 H         1     FUD    0.0000
     83 H         -10.8352   -0.8676   -4.5208 H         1     FUD    0.0000
     84 H         -10.7919   -2.5303   -5.2071 H         1     FUD    0.0000
     85 H          -9.5338   -3.3327   -3.1616 H         1     FUD    0.0000
     86 H          -9.5760   -1.6650   -2.4892 H         1     FUD    0.0000
     87 H          -8.2879   -0.8332   -4.5098 H         1     FUD    0.0000
     88 H          -8.2173   -2.5154   -5.1446 H         1     FUD    0.0000
     89 H          -6.9882   -3.2425   -3.0526 H         1     FUD    0.0000
     90 H          -7.0587   -1.5555   -2.4335 H         1     FUD    0.0000
     91 H          -5.7418   -0.7753   -4.4585 H         1     FUD    0.0000
     92 H          -5.6380   -2.4779   -5.0315 H         1     FUD    0.0000
     93 H          -4.4471   -3.1144   -2.8871 H         1     FUD    0.0000
     94 H          -4.5502   -1.4067   -2.3326 H         1     FUD    0.0000
     95 H          -3.1977   -0.6872   -4.3586 H         1     FUD    0.0000
     96 H          -3.0578   -2.4100   -4.8593 H         1     FUD    0.0000
     97 H          -1.9118   -2.9421   -2.6595 H         1     FUD    0.0000
     98 H          -2.0502   -1.2142   -2.1806 H         1     FUD    0.0000
     99 H          -0.6553   -0.5584   -4.1814 H         1     FUD    0.0000
    100 H          -0.4815   -2.3222   -4.6006 H         1     FUD    0.0000
    101 H           3.7063   -1.3750   -2.3582 H         1     FUD    0.0000
    102 H           2.6277   -2.7161   -1.8892 H         1     FUD    0.0000
    103 H           2.3573   -1.0867   -1.1969 H         1     FUD    0.0000
    104 H           1.9721   -3.1604   -4.4213 H         1     FUD    0.0000
    105 H           1.5914   -1.7250   -5.4468 H         1     FUD    0.0000
    106 H           3.2175   -1.9205   -4.7383 H         1     FUD    0.0000
    107 H           3.4989    0.4088   -5.3093 H         1     FUL    0.0000
    108 H           5.4587    1.7322   -5.0399 H         1     FUL    0.0000
    109 H           2.1770    1.5539   -1.4958 H         1     FUL    0.0000
    110 H           3.4925    4.0302   -0.9155 H         1     FUL    0.0000
    111 H           3.7287    2.5416    0.0300 H         1     FUL    0.0000
    112 H           5.5399    4.3228    0.3247 H         1     FUL    0.0000
    113 H           6.3599    1.5175   -0.6726 H         1     FUL    0.0000
    114 H           7.5256    2.7007    0.0030 H         1     FUL    0.0000
    115 H           6.1851    2.8342    2.1268 H         1     FUL    0.0000
    116 H           5.0707    1.5725    1.4963 H         1     FUL    0.0000
    117 H           6.9932   -0.0368    1.2826 H         1     FUL    0.0000
    118 H           8.1166    1.2202    1.9117 H         1     FUL    0.0000
    119 H           6.7895    1.3312    4.0587 H         1     FUL    0.0000
    120 H           5.6782    0.0609    3.4370 H         1     FUL    0.0000
    121 H           7.6085   -1.5538    3.2705 H         1     FUL    0.0000
    122 H           8.7298   -0.2805    3.8693 H         1     FUL    0.0000
    123 H           7.4126   -0.1315    6.0197 H         1     FUL    0.0000
    124 H           6.2991   -1.4137    5.4269 H         1     FUL    0.0000
    125 H           8.2306   -3.0292    5.2792 H         1     FUL    0.0000
    126 H           9.3530   -1.7456    5.8533 H         1     FUL    0.0000
    127 H           8.0403   -1.5553    7.9948 H         1     FUL    0.0000
    128 H           6.9309   -2.8590    7.4351 H         1     FUL    0.0000
    129 H           8.9138   -4.4411    7.2651 H         1     FUL    0.0000
    130 H           9.9900   -3.1536    7.9120 H         1     FUL    0.0000
    131 H           8.0104   -1.8879   10.3144 H         1     FUL    0.0000
    132 H           9.7447   -2.2880   10.5969 H         1     FUL    0.0000
    133 H           9.0723   -3.8171   12.4964 H         1     FUL    0.0000
    134 H           7.3396   -3.4356   12.1908 H         1     FUL    0.0000
    135 H           7.8091   -0.9967   12.6558 H         1     FUL    0.0000
    136 H           9.5310   -1.3908   12.9707 H         1     FUL    0.0000
    137 H           5.3477    5.0351   -2.0226 H         1     FUL    0.0000
    138 H           7.0315    2.5420   -2.7096 H         1     FUL    0.0000
    139 H           6.8873    3.3079   -5.0500 H         1     FUL    0.0000
    140 H           5.8360    4.6684   -4.5779 H         1     FUL    0.0000
    141 H           8.8023    4.1597   -3.8404 H         1     FUL    0.0000
    142 H           8.2010    5.4255   -4.9477 H         1     FUL    0.0000
    143 H           7.1691    7.5237   -4.0827 H         1     FUL    0.0000
    144 H           5.8066    6.6001   -3.4296 H         1     FUL    0.0000
    145 H           6.7121    7.7031   -2.3654 H         1     FUL    0.0000
    146 H           9.9579    5.6801   -2.3782 H         1     FUL    0.0000
    147 H           9.7023    7.2759   -3.9836 H         1     FUL    0.0000
    148 H           8.6272    7.8935   -0.7562 H         1     FUL    0.0000
    149 H           9.7530    6.5948   -0.2288 H         1     FUL    0.0000
    150 H           7.8253    5.4294    0.5388 H         1     FUL    0.0000
    151 H           6.7373    6.5955   -0.2976 H         1     FUL    0.0000
    152 H           8.2332    4.2037   -1.4690 H         1     FUL    0.0000
@<TRIPOS>BOND
     1     1     2     1
     2     1    64     1
     3     1    65     1
     4     1    66     1
     5     2     3     1
     6     2    67     1
     7     2    68     1
     8     3     4     1
     9     3    69     1
    10     3    70     1
    11     4     5     1
    12     4    71     1
    13     4    72     1
    14     5     6     1
    15     5    73     1
    16     5    74     1
    17     6     7     1
    18     6    75     1
    19     6    76     1
    20     7     8     1
    21     7    77     1
    22     7    78     1
    23     8     9     1
    24     8    79     1
    25     8    80     1
    26     9    10     1
    27     9    81     1
    28     9    82     1
    29    10    11     1
    30    10    83     1
    31    10    84     1
    32    11    12     1
    33    11    85     1
    34    11    86     1
    35    12    13     1
    36    12    87     1
    37    12    88     1
    38    13    14     1
    39    13    89     1
    40    13    90     1
    41    14    15     1
    42    14    91     1
    43    14    92     1
    44    15    16     1
    45    15    93     1
    46    15    94     1
    47    16    17     1
    48    16    95     1
    49    16    96     1
    50    17    18     1
    51    17    97     1
    52    17    98     1
    53    18    19     1
    54    18    99     1
    55    18   100     1
    56    19    20     1
    57    20    21     1
    58    20    22     1
    59    20    23     1
    60    21   101     1
    61    21   102     1
    62    21   103     1
    63    22   104     1
    64    22   105     1
    65    22   106     1
    66    23    24     1
    67    24    25     1
    68    24    29     2
    69    25    26     2
    70    25   107     1
    71    26    27     1
    72    26   108     1
    73    27    28     2
    74    27    54     1
    75    28    29     1
    76    28    30     1
    77    29   109     1
    78    30    31     1
    79    30   110     1
    80    30   111     1
    81    31    32     1
    82    31    53     1
    83    31   112     1
    84    32    33     1
    85    32   113     1
    86    32   114     1
    87    33    34     1
    88    33   115     1
    89    33   116     1
    90    34    35     1
    91    34   117     1
    92    34   118     1
    93    35    36     1
    94    35   119     1
    95    35   120     1
    96    36    37     1
    97    36   121     1
    98    36   122     1
    99    37    38     1
   100    37   123     1
   101    37   124     1
   102    38    39     1
   103    38   125     1
   104    38   126     1
   105    39    40     1
   106    39   127     1
   107    39   128     1
   108    40    41     1
   109    40   129     1
   110    40   130     1
   111    41    42     2
   112    41    43     1
   113    43    44     1
   114    43   131     1
   115    43   132     1
   116    44    45     1
   117    44   133     1
   118    44   134     1
   119    45    46     1
   120    45   135     1
   121    45   136     1
   122    46    47     1
   123    46    48     1
   124    46    49     1
   125    49    50     1
   126    49    51     1
   127    49    52     1
   128    53    54     1
   129    53    63     1
   130    53   137     1
   131    54    55     1
   132    54   138     1
   133    55    56     1
   134    55   139     1
   135    55   140     1
   136    56    57     1
   137    56   141     1
   138    56   142     1
   139    57    58     1
   140    57    59     1
   141    57    63     1
   142    58   143     1
   143    58   144     1
   144    58   145     1
   145    59    60     1
   146    59    61     1
   147    59   146     1
   148    60   147     1
   149    61    62     1
   150    61   148     1
   151    61   149     1
   152    62    63     1
   153    62   150     1
   154    62   151     1
   155    63   152     1
