# created with PyMOL 2.5.4
@<TRIPOS>MOLECULE
FUL
152 155 2               
SMALL
USER_CHARGES
@<TRIPOS>ATOM
1	   C	-22.275	-2.399	-3.387	C.3	1	FUD1	0.000	
2	   C	-21.019	-2.012	-4.178	C.3	1	FUD1	0.000	
3	   C	-19.732	-2.383	-3.425	C.3	1	FUD1	0.000	
4	   C	-18.470	-2.001	-4.215	C.3	1	FUD1	0.000	
5	   C	-17.184	-2.365	-3.455	C.3	1	FUD1	0.000	
6	   C	-15.920	-1.991	-4.246	C.3	1	FUD1	0.000	
7	   C	-14.637	-2.342	-3.474	C.3	1	FUD1	0.000	
8	   C	-13.369	-1.976	-4.262	C.3	1	FUD1	0.000	
9	   C	-12.092	-2.306	-3.472	C.3	1	FUD1	0.000	
10	   C	-10.816	-1.951	-4.254	C.3	1	FUD1	0.000	
11	   C	-9.548	-2.252	-3.438	C.3	1	FUD1	0.000	
12	   C	-8.264	-1.908	-4.210	C.3	1	FUD1	0.000	
13	   C	-7.008	-2.171	-3.363	C.3	1	FUD1	0.000	
14	   C	-5.711	-1.838	-4.120	C.3	1	FUD1	0.000	
15	   C	-4.471	-2.055	-3.238	C.3	1	FUD1	0.000	
16	   C	-3.162	-1.735	-3.977	C.3	1	FUD1	0.000	
17	   C	-1.942	-1.899	-3.056	C.3	1	FUD1	0.000	
18	   C	-0.625	-1.593	-3.772	C.3	1	FUD1	0.000	
19	   C	1.698	-1.313	-3.283	C.3	1	FUD1	0.000	
20	   C	2.647	-1.628	-2.126	C.3	1	FUD1	0.000	
21	   C	2.133	-2.064	-4.536	C.3	1	FUD1	0.000	
22	   O	0.419	-1.716	-2.837	O.3	1	FUD1	0.000	
23	   H	-23.200	-2.123	-3.945	 H	1	FUD1	0.000	
24	   H	-22.309	-3.497	-3.198	 H	1	FUD1	0.000	
25	   H	-22.306	-1.880	-2.402	 H	1	FUD1	0.000	
26	   H	-21.033	-0.913	-4.375	 H	1	FUD1	0.000	
27	   H	-21.035	-2.528	-5.168	 H	1	FUD1	0.000	
28	   H	-19.725	-3.481	-3.225	 H	1	FUD1	0.000	
29	   H	-19.721	-1.864	-2.437	 H	1	FUD1	0.000	
30	   H	-18.479	-0.904	-4.419	 H	1	FUD1	0.000	
31	   H	-18.478	-2.524	-5.201	 H	1	FUD1	0.000	
32	   H	-17.177	-3.461	-3.245	 H	1	FUD1	0.000	
33	   H	-17.175	-1.837	-2.472	 H	1	FUD1	0.000	
34	   H	-15.931	-0.897	-4.464	 H	1	FUD1	0.000	
35	   H	-15.922	-2.528	-5.224	 H	1	FUD1	0.000	
36	   H	-14.629	-3.434	-3.247	 H	1	FUD1	0.000	
37	   H	-14.635	-1.799	-2.498	 H	1	FUD1	0.000	
38	   H	-13.383	-0.887	-4.502	 H	1	FUD1	0.000	
39	   H	-13.361	-2.532	-5.230	 H	1	FUD1	0.000	
40	   H	-12.081	-3.394	-3.223	 H	1	FUD1	0.000	
41	   H	-12.102	-1.744	-2.508	 H	1	FUD1	0.000	
42	   H	-10.835	-0.868	-4.521	 H	1	FUD1	0.000	
43	   H	-10.792	-2.530	-5.207	 H	1	FUD1	0.000	
44	   H	-9.534	-3.333	-3.162	 H	1	FUD1	0.000	
45	   H	-9.576	-1.665	-2.489	 H	1	FUD1	0.000	
46	   H	-8.288	-0.833	-4.510	 H	1	FUD1	0.000	
47	   H	-8.217	-2.515	-5.145	 H	1	FUD1	0.000	
48	   H	-6.988	-3.243	-3.053	 H	1	FUD1	0.000	
49	   H	-7.059	-1.556	-2.434	 H	1	FUD1	0.000	
50	   H	-5.742	-0.775	-4.458	 H	1	FUD1	0.000	
51	   H	-5.638	-2.478	-5.031	 H	1	FUD1	0.000	
52	   H	-4.447	-3.114	-2.887	 H	1	FUD1	0.000	
53	   H	-4.550	-1.407	-2.333	 H	1	FUD1	0.000	
54	   H	-3.198	-0.687	-4.359	 H	1	FUD1	0.000	
55	   H	-3.058	-2.410	-4.859	 H	1	FUD1	0.000	
56	   H	-1.912	-2.942	-2.659	 H	1	FUD1	0.000	
57	   H	-2.050	-1.214	-2.181	 H	1	FUD1	0.000	
58	   H	-0.655	-0.558	-4.181	 H	1	FUD1	0.000	
59	   H	-0.481	-2.322	-4.601	 H	1	FUD1	0.000	
60	   H	3.706	-1.375	-2.358	 H	1	FUD1	0.000	
61	   H	2.628	-2.716	-1.889	 H	1	FUD1	0.000	
62	   H	2.357	-1.087	-1.197	 H	1	FUD1	0.000	
63	   H	1.972	-3.160	-4.421	 H	1	FUD1	0.000	
64	   H	1.591	-1.725	-5.447	 H	1	FUD1	0.000	
65	   H	3.217	-1.921	-4.738	 H	1	FUD1	0.000	
66	   C	2.746	0.812	-3.374	C.2	2	FUL1	0.000	
67	   C	3.648	0.948	-4.359	C.2	2	FUL1	0.000	
68	   C	4.740	1.711	-4.207	C.2	2	FUL1	0.000	
69	   C	4.959	2.429	-3.090	C.2	2	FUL1	0.000	
70	   C	4.029	2.357	-2.115	C.2	2	FUL1	0.000	
71	   C	2.945	1.580	-2.288	C.2	2	FUL1	0.000	
72	   C	4.146	3.130	-0.818	C.3	2	FUL1	0.000	
73	   C	5.585	3.563	-0.496	C.3	2	FUL1	0.000	
74	   C	6.454	2.394	0.009	C.3	2	FUL1	0.000	
75	   C	6.117	1.953	1.445	C.3	2	FUL1	0.000	
76	   C	7.064	0.853	1.953	C.3	2	FUL1	0.000	
77	   C	6.728	0.436	3.395	C.3	2	FUL1	0.000	
78	   C	7.679	-0.651	3.922	C.3	2	FUL1	0.000	
79	   C	7.349	-1.039	5.373	C.3	2	FUL1	0.000	
80	   C	8.302	-2.116	5.917	C.3	2	FUL1	0.000	
81	   C	7.980	-2.481	7.376	C.3	2	FUL1	0.000	
82	   C	8.945	-3.542	7.925	C.3	2	FUL1	0.000	
83	   C	8.705	-2.684	10.668	C.3	2	FUL1	0.000	
84	   C	8.376	-3.025	12.132	C.3	2	FUL1	0.000	
85	   C	8.491	-1.790	13.045	C.3	2	FUL1	0.000	
86	   C	8.163	-2.069	14.481	C.3	2	FUL1	0.000	
87	   C	8.281	-0.859	15.353	C.3	2	FUL1	0.000	
88	   C	6.111	4.263	-1.762	C.3	2	FUL1	0.000	
89	   C	6.219	3.275	-2.944	C.3	2	FUL1	0.000	
90	   C	6.670	4.022	-4.221	C.3	2	FUL1	0.000	
91	   C	7.952	4.859	-4.020	C.3	2	FUL1	0.000	
92	   C	7.820	5.830	-2.835	C.3	2	FUL1	0.000	
93	   C	6.827	6.961	-3.185	C.3	2	FUL1	0.000	
94	   C	9.137	6.433	-2.324	C.3	2	FUL1	0.000	
95	   C	8.859	6.808	-0.861	C.3	2	FUL1	0.000	
96	   C	7.645	5.961	-0.424	C.3	2	FUL1	0.000	
97	   C	7.448	4.991	-1.594	C.3	2	FUL1	0.000	
98	   O	1.602	0.074	-3.521	O.3	2	FUL1	0.000	
99	   O	9.170	-5.331	10.018	O.2	2	FUL1	0.000	
100	   O	9.554	7.545	-3.074	O.3	2	FUL1	0.000	
101	   F	8.961	-3.012	14.951	 F	2	FUL1	0.000	
102	   F	6.932	-2.542	14.574	 F	2	FUL1	0.000	
103	   F	7.485	0.092	14.948	 F	2	FUL1	0.000	
104	   F	7.992	-1.106	16.603	 F	2	FUL1	0.000	
105	   F	9.490	-0.369	15.318	 F	2	FUL1	0.000	
106	   S	8.567	-4.081	9.577	S.O	2	FUL1	0.000	
107	   H	3.499	0.409	-5.309	 H	2	FUL1	0.000	
108	   H	5.459	1.732	-5.040	 H	2	FUL1	0.000	
109	   H	2.177	1.554	-1.496	 H	2	FUL1	0.000	
110	   H	3.493	4.030	-0.915	 H	2	FUL1	0.000	
111	   H	3.729	2.542	0.030	 H	2	FUL1	0.000	
112	   H	5.540	4.323	0.325	 H	2	FUL1	0.000	
113	   H	6.360	1.518	-0.673	 H	2	FUL1	0.000	
114	   H	7.526	2.701	0.003	 H	2	FUL1	0.000	
115	   H	6.185	2.834	2.127	 H	2	FUL1	0.000	
116	   H	5.071	1.572	1.496	 H	2	FUL1	0.000	
117	   H	6.993	-0.037	1.283	 H	2	FUL1	0.000	
118	   H	8.117	1.220	1.912	 H	2	FUL1	0.000	
119	   H	6.790	1.331	4.059	 H	2	FUL1	0.000	
120	   H	5.678	0.061	3.437	 H	2	FUL1	0.000	
121	   H	7.609	-1.554	3.270	 H	2	FUL1	0.000	
122	   H	8.730	-0.280	3.869	 H	2	FUL1	0.000	
123	   H	7.413	-0.132	6.020	 H	2	FUL1	0.000	
124	   H	6.299	-1.414	5.427	 H	2	FUL1	0.000	
125	   H	8.231	-3.029	5.279	 H	2	FUL1	0.000	
126	   H	9.353	-1.746	5.853	 H	2	FUL1	0.000	
127	   H	8.040	-1.555	7.995	 H	2	FUL1	0.000	
128	   H	6.931	-2.859	7.435	 H	2	FUL1	0.000	
129	   H	8.914	-4.441	7.265	 H	2	FUL1	0.000	
130	   H	9.990	-3.154	7.912	 H	2	FUL1	0.000	
131	   H	8.010	-1.888	10.314	 H	2	FUL1	0.000	
132	   H	9.745	-2.288	10.597	 H	2	FUL1	0.000	
133	   H	9.072	-3.817	12.496	 H	2	FUL1	0.000	
134	   H	7.340	-3.436	12.191	 H	2	FUL1	0.000	
135	   H	7.809	-0.997	12.656	 H	2	FUL1	0.000	
136	   H	9.531	-1.391	12.971	 H	2	FUL1	0.000	
137	   H	5.348	5.035	-2.023	 H	2	FUL1	0.000	
138	   H	7.031	2.542	-2.710	 H	2	FUL1	0.000	
139	   H	6.887	3.308	-5.050	 H	2	FUL1	0.000	
140	   H	5.836	4.668	-4.578	 H	2	FUL1	0.000	
141	   H	8.802	4.160	-3.840	 H	2	FUL1	0.000	
142	   H	8.201	5.425	-4.948	 H	2	FUL1	0.000	
143	   H	7.169	7.524	-4.083	 H	2	FUL1	0.000	
144	   H	5.807	6.600	-3.430	 H	2	FUL1	0.000	
145	   H	6.712	7.703	-2.365	 H	2	FUL1	0.000	
146	   H	9.958	5.680	-2.378	 H	2	FUL1	0.000	
147	   H	9.702	7.276	-3.984	 H	2	FUL1	0.000	
148	   H	8.627	7.893	-0.756	 H	2	FUL1	0.000	
149	   H	9.753	6.595	-0.229	 H	2	FUL1	0.000	
150	   H	7.825	5.429	0.539	 H	2	FUL1	0.000	
151	   H	6.737	6.595	-0.298	 H	2	FUL1	0.000	
152	   H	8.233	4.204	-1.469	 H	2	FUL1	0.000	
@<TRIPOS>BOND
1 1 2 1
2 1 23 1
3 1 24 1
4 1 25 1
5 2 3 1
6 2 26 1
7 2 27 1
8 3 4 1
9 3 28 1
10 3 29 1
11 4 5 1
12 4 30 1
13 4 31 1
14 5 6 1
15 5 32 1
16 5 33 1
17 6 7 1
18 6 34 1
19 6 35 1
20 7 8 1
21 7 36 1
22 7 37 1
23 8 9 1
24 8 38 1
25 8 39 1
26 9 10 1
27 9 40 1
28 9 41 1
29 10 11 1
30 10 42 1
31 10 43 1
32 11 12 1
33 11 44 1
34 11 45 1
35 12 13 1
36 12 46 1
37 12 47 1
38 13 14 1
39 13 48 1
40 13 49 1
41 14 15 1
42 14 50 1
43 14 51 1
44 15 16 1
45 15 52 1
46 15 53 1
47 16 17 1
48 16 54 1
49 16 55 1
50 17 18 1
51 17 56 1
52 17 57 1
53 18 22 1
54 18 58 1
55 18 59 1
56 19 20 1
57 19 21 1
58 19 98 1
59 20 60 1
60 20 61 1
61 20 62 1
62 21 63 1
63 21 64 1
64 21 65 1
65 19 22 1
66 66 67 1
67 66 71 2
68 67 68 2
69 67 107 1
70 68 69 1
71 68 108 1
72 69 70 2
73 69 89 1
74 70 71 1
75 70 72 1
76 71 109 1
77 72 73 1
78 72 110 1
79 72 111 1
80 73 74 1
81 73 88 1
82 73 112 1
83 74 75 1
84 74 113 1
85 74 114 1
86 75 76 1
87 75 115 1
88 75 116 1
89 76 77 1
90 76 117 1
91 76 118 1
92 77 78 1
93 77 119 1
94 77 120 1
95 78 79 1
96 78 121 1
97 78 122 1
98 79 80 1
99 79 123 1
100 79 124 1
101 80 81 1
102 80 125 1
103 80 126 1
104 81 82 1
105 81 127 1
106 81 128 1
107 82 106 1
108 82 129 1
109 82 130 1
110 83 84 1
111 83 131 1
112 83 132 1
113 84 85 1
114 84 133 1
115 84 134 1
116 85 86 1
117 85 135 1
118 85 136 1
119 86 87 1
120 86 101 1
121 86 102 1
122 87 103 1
123 87 104 1
124 87 105 1
125 88 89 1
126 88 97 1
127 88 137 1
128 89 90 1
129 89 138 1
130 90 91 1
131 90 139 1
132 90 140 1
133 91 92 1
134 91 141 1
135 91 142 1
136 92 93 1
137 92 94 1
138 92 97 1
139 93 143 1
140 93 144 1
141 93 145 1
142 94 95 1
143 94 100 1
144 94 146 1
145 95 96 1
146 95 148 1
147 95 149 1
148 96 97 1
149 96 150 1
150 96 151 1
151 97 152 1
152 66 98 1
153 100 147 1
154 83 106 1
155 99 106 2
@<TRIPOS>SUBSTRUCTURE
1	FUD1	1	GROUP	1 ****	FUD
2	FUL1	66	GROUP	1 ****	FUL
