@<TRIPOS>MOLECULE
DTX
110 115 1 0 0
SMALL
USER_CHARGES


@<TRIPOS>ATOM
      1 C          -3.6701    1.9953   -5.2272 C.3       1     DTX    0.0000
      2 C          -4.5896    1.9990   -4.0194 C.2       1     DTX    0.0000
      3 O          -5.6691    2.5427   -3.9955 O.2       1     DTX    0.0000
      4 O          -3.9943    1.3081   -3.0094 O.3       1     DTX    0.0000
      5 C          -4.5205    1.1080   -1.7305 C.3       1     DTX    0.0000
      6 C          -5.2445    2.3020   -1.1016 C.3       1     DTX    0.0000
      7 O          -6.5077    1.6668   -1.1977 O.3       1     DTX    0.0000
      8 C          -5.9320    0.5170   -1.7755 C.3       1     DTX    0.0000
      9 C          -6.1279   -0.7239   -0.9222 C.3       1     DTX    0.0000
     10 C          -5.4920   -0.5936    0.4573 C.3       1     DTX    0.0000
     11 O          -6.1233    0.4695    1.1389 O.3       1     DTX    0.0000
     12 C          -3.9470   -0.4083    0.4297 C.3       1     DTX    0.0000
     13 C          -3.5774    0.2622    1.7732 C.3       1     DTX    0.0000
     14 C          -3.2845   -1.8219    0.4391 C.2       1     DTX    0.0000
     15 O          -3.9309   -2.8007    0.1302 O.2       1     DTX    0.0000
     16 C          -1.8216   -2.1277    0.8341 C.3       1     DTX    0.0000
     17 O          -1.8168   -2.3816    2.2339 O.3       1     DTX    0.0000
     18 C          -0.7655   -1.1682    0.3140 C.2       1     DTX    0.0000
     19 C           0.0112   -0.3604    1.0759 C.2       1     DTX    0.0000
     20 C           0.1421   -0.4259    2.5848 C.3       1     DTX    0.0000
     21 C           0.7221    0.8471    0.4705 C.3       1     DTX    0.0000
     22 O           2.1102    0.9727    0.6931 O.3       1     DTX    0.0000
     23 C           2.9235   -0.0962    0.9190 C.2       1     DTX    0.0000
     24 O           2.5916   -1.2568    0.9910 O.2       1     DTX    0.0000
     25 C           4.3673    0.3827    1.0889 C.3       1     DTX    0.0000
     26 O           4.7380    1.1969   -0.0103 O.3       1     DTX    0.0000
     27 C           5.4127   -0.7314    1.2500 C.3       1     DTX    0.0000
     28 N           4.9128   -1.7744    2.1515 N.am      1     DTX    0.0000
     29 C           5.1660   -1.8025    3.4948 C.2       1     DTX    0.0000
     30 O           5.8532   -0.9715    4.0341 O.2       1     DTX    0.0000
     31 C           4.4941   -2.9633    4.2347 C.3       1     DTX    0.0000
     32 C           2.9653   -2.8190    4.1053 C.3       1     DTX    0.0000
     33 C           4.9548   -4.2920    3.6050 C.3       1     DTX    0.0000
     34 C           4.8778   -2.9487    5.7280 C.3       1     DTX    0.0000
     35 C           5.7708   -1.3409   -0.0949 C.ar      1     DTX    0.0000
     36 C           5.1083   -2.3943   -0.6092 C.ar      1     DTX    0.0000
     37 C           5.4349   -2.9054   -1.8065 C.ar      1     DTX    0.0000
     38 C           6.4396   -2.3718   -2.5161 C.ar      1     DTX    0.0000
     39 C           7.1157   -1.3273   -2.0167 C.ar      1     DTX    0.0000
     40 C           6.7821   -0.8234   -0.8188 C.ar      1     DTX    0.0000
     41 C           0.3614    1.1971   -0.9869 C.3       1     DTX    0.0000
     42 C          -0.9089    0.4581   -1.4597 C.3       1     DTX    0.0000
     43 O          -1.0676    0.6842   -2.8345 O.3       1     DTX    0.0000
     44 C          -2.1291    1.1066   -0.7563 C.3       1     DTX    0.0000
     45 O          -2.2556    2.4223   -1.2330 O.3       1     DTX    0.0000
     46 C          -2.0998    3.5435   -0.4489 C.2       1     DTX    0.0000
     47 O          -1.8109    3.4292    0.7265 O.2       1     DTX    0.0000
     48 C          -2.2755    4.7838   -1.0006 C.ar      1     DTX    0.0000
     49 C          -2.1396    5.9128   -0.2771 C.ar      1     DTX    0.0000
     50 C          -2.3180    7.1185   -0.8409 C.ar      1     DTX    0.0000
     51 C          -2.6359    7.2176   -2.1397 C.ar      1     DTX    0.0000
     52 C          -2.7737    6.1027   -2.8712 C.ar      1     DTX    0.0000
     53 C          -2.5939    4.8990   -2.3051 C.ar      1     DTX    0.0000
     54 C          -3.4860    0.3672   -0.8576 C.3       1     DTX    0.0000
     55 C          -0.6564   -1.0532   -1.2089 C.3       1     DTX    0.0000
     56 C           0.7720   -1.5185   -1.6360 C.3       1     DTX    0.0000
     57 C          -1.4856   -2.0528   -2.0696 C.3       1     DTX    0.0000
     58 H          -3.5150    0.9540   -5.5902 H         1     DTX    0.0000
     59 H          -4.1066    2.5917   -6.0596 H         1     DTX    0.0000
     60 H          -2.6820    2.4388   -4.9678 H         1     DTX    0.0000
     61 H          -5.2313    3.2544   -1.6690 H         1     DTX    0.0000
     62 H          -4.9796    2.4794   -0.0386 H         1     DTX    0.0000
     63 H          -6.3490    0.3708   -2.7968 H         1     DTX    0.0000
     64 H          -7.2204   -0.9285   -0.8218 H         1     DTX    0.0000
     65 H          -5.6878   -1.5945   -1.4623 H         1     DTX    0.0000
     66 H          -5.7663   -1.4879    1.0677 H         1     DTX    0.0000
     67 H          -6.9529    0.6982    0.7143 H         1     DTX    0.0000
     68 H          -3.8477    1.3414    1.7928 H         1     DTX    0.0000
     69 H          -4.0831   -0.2389    2.6298 H         1     DTX    0.0000
     70 H          -2.5022    0.2115    2.0193 H         1     DTX    0.0000
     71 H          -1.5396   -3.1173    0.4010 H         1     DTX    0.0000
     72 H          -2.3589   -3.1535    2.4148 H         1     DTX    0.0000
     73 H          -0.7093    0.0586    3.1075 H         1     DTX    0.0000
     74 H           0.2769   -1.4661    2.9487 H         1     DTX    0.0000
     75 H           1.0553    0.1010    2.9386 H         1     DTX    0.0000
     76 H           0.2790    1.6875    1.0684 H         1     DTX    0.0000
     77 H           4.3804    1.0216    2.0038 H         1     DTX    0.0000
     78 H           5.6903    1.1938   -0.1237 H         1     DTX    0.0000
     79 H           6.3506   -0.2924    1.6675 H         1     DTX    0.0000
     80 H           4.2347   -2.4278    1.7590 H         1     DTX    0.0000
     81 H           2.4367   -3.6027    4.6936 H         1     DTX    0.0000
     82 H           2.6212   -1.8272    4.4774 H         1     DTX    0.0000
     83 H           2.6220   -2.9240    3.0525 H         1     DTX    0.0000
     84 H           4.5096   -5.1625    4.1379 H         1     DTX    0.0000
     85 H           6.0626   -4.3963    3.6544 H         1     DTX    0.0000
     86 H           4.6551   -4.3774    2.5362 H         1     DTX    0.0000
     87 H           4.5468   -2.0097    6.2273 H         1     DTX    0.0000
     88 H           4.4018   -3.7948    6.2737 H         1     DTX    0.0000
     89 H           5.9784   -3.0457    5.8686 H         1     DTX    0.0000
     90 H           4.2777   -2.8693   -0.0662 H         1     DTX    0.0000
     91 H           4.8763   -3.7669   -2.2101 H         1     DTX    0.0000
     92 H           6.7093   -2.7900   -3.5001 H         1     DTX    0.0000
     93 H           7.9459   -0.8839   -2.5918 H         1     DTX    0.0000
     94 H           7.3585    0.0346   -0.4343 H         1     DTX    0.0000
     95 H           0.2593    2.3005   -1.1008 H         1     DTX    0.0000
     96 H           1.2082    0.9877   -1.6768 H         1     DTX    0.0000
     97 H          -1.2341    1.6215   -2.9749 H         1     DTX    0.0000
     98 H          -1.8791    1.1522    0.3138 H         1     DTX    0.0000
     99 H          -1.8803    5.8962    0.7945 H         1     DTX    0.0000
    100 H          -2.2034    8.0338   -0.2356 H         1     DTX    0.0000
    101 H          -2.7825    8.2077   -2.6024 H         1     DTX    0.0000
    102 H          -3.0348    6.1770   -3.9406 H         1     DTX    0.0000
    103 H          -2.7184    4.0176   -2.9549 H         1     DTX    0.0000
    104 H          -3.3157   -0.4486   -1.5882 H         1     DTX    0.0000
    105 H           0.9289   -1.4065   -2.7330 H         1     DTX    0.0000
    106 H           1.6198   -0.9926   -1.1654 H         1     DTX    0.0000
    107 H           0.9546   -2.5855   -1.3731 H         1     DTX    0.0000
    108 H          -1.3790   -1.8360   -3.1563 H         1     DTX    0.0000
    109 H          -1.1515   -3.1054   -1.9296 H         1     DTX    0.0000
    110 H          -2.5700   -2.1239   -1.8950 H         1     DTX    0.0000
@<TRIPOS>BOND
     1     1     2     1
     2     1    58     1
     3     1    59     1
     4     1    60     1
     5     2     3     2
     6     2     4     1
     7     4     5     1
     8     5     6     1
     9     5     8     1
    10     5    54     1
    11     6     7     1
    12     6    61     1
    13     6    62     1
    14     7     8     1
    15     8     9     1
    16     8    63     1
    17     9    10     1
    18     9    64     1
    19     9    65     1
    20    10    11     1
    21    10    12     1
    22    10    66     1
    23    11    67     1
    24    12    13     1
    25    12    14     1
    26    12    54     1
    27    13    68     1
    28    13    69     1
    29    13    70     1
    30    14    15     2
    31    14    16     1
    32    16    17     1
    33    16    18     1
    34    16    71     1
    35    17    72     1
    36    18    19     2
    37    18    55     1
    38    19    20     1
    39    19    21     1
    40    20    73     1
    41    20    74     1
    42    20    75     1
    43    21    22     1
    44    21    41     1
    45    21    76     1
    46    22    23     1
    47    23    24     2
    48    23    25     1
    49    25    26     1
    50    25    27     1
    51    25    77     1
    52    26    78     1
    53    27    28     1
    54    27    35     1
    55    27    79     1
    56    28    29     1
    57    28    80     1
    58    29    30     2
    59    29    31     1
    60    31    32     1
    61    31    33     1
    62    31    34     1
    63    32    81     1
    64    32    82     1
    65    32    83     1
    66    33    84     1
    67    33    85     1
    68    33    86     1
    69    34    87     1
    70    34    88     1
    71    34    89     1
    72    35    36     1
    73    35    40     2
    74    36    37     2
    75    36    90     1
    76    37    38     1
    77    37    91     1
    78    38    39     2
    79    38    92     1
    80    39    40     1
    81    39    93     1
    82    40    94     1
    83    41    42     1
    84    41    95     1
    85    41    96     1
    86    42    43     1
    87    42    44     1
    88    42    55     1
    89    43    97     1
    90    44    45     1
    91    44    54     1
    92    44    98     1
    93    45    46     1
    94    46    47     2
    95    46    48     1
    96    48    49     1
    97    48    53     2
    98    49    50     2
    99    49    99     1
   100    50    51     1
   101    50   100     1
   102    51    52     2
   103    51   101     1
   104    52    53     1
   105    52   102     1
   106    53   103     1
   107    54   104     1
   108    55    56     1
   109    55    57     1
   110    56   105     1
   111    56   106     1
   112    56   107     1
   113    57   108     1
   114    57   109     1
   115    57   110     1
