@<TRIPOS>MOLECULE
PTX
126 132 1 0 0
SMALL
USER_CHARGES


@<TRIPOS>ATOM
      1 C          -0.3074   -1.7348    4.2415 C.3       1     PTL    0.0000
      2 O          -0.6693   -0.4128    3.8990 O.3       1     PTL    0.0000
      3 C           0.2147    0.2751    3.0286 C.3       1     PTL    0.0000
      4 C          -0.3947    1.6658    2.8369 C.3       1     PTL    0.0000
      5 C           1.6352    0.3400    3.5661 C.3       1     PTL    0.0000
      6 Br          1.8132    1.1543    5.3253 Br        1     PTL    0.0000
      7 O           0.1173   -0.4718    1.8325 O.3       1     PTX    0.0000
      8 C           0.8095   -0.0136    0.6902 C.3       1     PTX    0.0000
      9 C           2.2971   -0.3972    0.6840 C.2       1     PTX    0.0000
     10 O           2.7201   -1.4625    1.0716 O.2       1     PTX    0.0000
     11 O           3.0224    0.6370    0.1748 O.3       1     PTX    0.0000
     12 C           4.4268    0.6173    0.0386 C.3       1     PTX    0.0000
     13 C           5.0990    1.5960    1.0206 C.3       1     PTX    0.0000
     14 C           6.5487    1.1756    1.3470 C.3       1     PTX    0.0000
     15 O           7.0323    2.0071    2.3676 O.3       1     PTX    0.0000
     16 C           7.4275    1.4501    0.0976 C.3       1     PTX    0.0000
     17 O           7.4741    2.8409   -0.1037 O.3       1     PTX    0.0000
     18 C           6.9319    3.4782   -1.1982 C.2       1     PTX    0.0000
     19 O           6.3100    2.8403   -2.0251 O.2       1     PTX    0.0000
     20 C           7.1039    4.8273   -1.3536 C.ar      1     PTX    0.0000
     21 C           6.6025    5.4939   -2.4123 C.ar      1     PTX    0.0000
     22 C           6.7863    6.8176   -2.5438 C.ar      1     PTX    0.0000
     23 C           7.4753    7.5005   -1.6182 C.ar      1     PTX    0.0000
     24 C           7.9779    6.8505   -0.5590 C.ar      1     PTX    0.0000
     25 C           7.7914    5.5275   -0.4301 C.ar      1     PTX    0.0000
     26 C           8.8596    0.8554    0.0756 C.3       1     PTX    0.0000
     27 C           9.0519   -0.4481   -0.7854 C.3       1     PTX    0.0000
     28 C           8.2367   -0.4934   -2.0985 C.3       1     PTX    0.0000
     29 C           8.6315   -1.6720    0.0906 C.2       1     PTX    0.0000
     30 O           9.4849   -2.2482    0.7336 O.2       1     PTX    0.0000
     31 C           7.1781   -2.1989    0.2455 C.3       1     PTX    0.0000
     32 O           6.8187   -2.9533   -0.8986 O.3       1     PTX    0.0000
     33 C           7.2804   -4.2232   -1.0658 C.2       1     PTX    0.0000
     34 C           6.7786   -4.7722   -2.3871 C.3       1     PTX    0.0000
     35 O           7.9840   -4.8269   -0.2891 O.2       1     PTX    0.0000
     36 C           6.1834   -1.0933    0.5946 C.2       1     PTX    0.0000
     37 C           5.1131   -0.7323   -0.1577 C.2       1     PTX    0.0000
     38 C           4.5805   -1.4846   -1.3620 C.3       1     PTX    0.0000
     39 C           6.4692   -0.2864    1.8659 C.3       1     PTX    0.0000
     40 C           5.2837   -0.5340    2.8512 C.3       1     PTX    0.0000
     41 C           7.6235   -0.7475    2.8030 C.3       1     PTX    0.0000
     42 C          10.5404   -0.6465   -1.1976 C.3       1     PTX    0.0000
     43 O          10.7962   -0.0905   -2.4702 O.3       1     PTX    0.0000
     44 C          11.5570   -0.0652   -0.2207 C.3       1     PTX    0.0000
     45 C          11.4123    1.4359   -0.0505 C.3       1     PTX    0.0000
     46 O          11.5938    2.1415   -1.2567 O.3       1     PTX    0.0000
     47 C          10.2730    2.6520   -1.2039 C.3       1     PTX    0.0000
     48 C           9.9706    1.9257    0.1099 C.3       1     PTX    0.0000
     49 O           9.8222    2.7195    1.2508 O.3       1     PTX    0.0000
     50 C          10.5611    3.8204    1.5586 C.2       1     PTX    0.0000
     51 C          10.0771    4.3851    2.8819 C.3       1     PTX    0.0000
     52 O          11.4609    4.3010    0.9097 O.2       1     PTX    0.0000
     53 C           0.1027   -0.5965   -0.5567 C.3       1     PTX    0.0000
     54 N           0.8912   -0.2400   -1.7451 N.am      1     PTX    0.0000
     55 C           0.7961   -0.7414   -3.0170 C.2       1     PTX    0.0000
     56 O           1.7797   -0.5270   -3.6879 O.2       1     PTX    0.0000
     57 C          -0.1963   -1.5625   -3.4727 C.ar      1     PTX    0.0000
     58 C           0.0705   -2.4452   -4.4581 C.ar      1     PTX    0.0000
     59 C          -0.8691   -3.2811   -4.9281 C.ar      1     PTX    0.0000
     60 C          -2.1126   -3.2463   -4.4300 C.ar      1     PTX    0.0000
     61 C          -2.4053   -2.3588   -3.4696 C.ar      1     PTX    0.0000
     62 C          -1.4586   -1.5274   -3.0058 C.ar      1     PTX    0.0000
     63 C          -0.0817   -2.0997   -0.4156 C.ar      1     PTX    0.0000
     64 C           0.8631   -2.9793   -0.7961 C.ar      1     PTX    0.0000
     65 C           0.6800   -4.3018   -0.6620 C.ar      1     PTX    0.0000
     66 C          -0.4609   -4.7718   -0.1371 C.ar      1     PTX    0.0000
     67 C          -1.4119   -3.9104    0.2525 C.ar      1     PTX    0.0000
     68 C          -1.2187   -2.5900    0.1132 C.ar      1     PTX    0.0000
     69 H          -1.1441   -2.1663    4.8353 H         1     PTL    0.0000
     70 H          -0.1672   -2.3675    3.3391 H         1     PTL    0.0000
     71 H           0.5987   -1.7486    4.8830 H         1     PTL    0.0000
     72 H           0.2962    2.3748    2.3297 H         1     PTL    0.0000
     73 H          -0.6562    2.1348    3.8121 H         1     PTL    0.0000
     74 H          -1.3377    1.6178    2.2456 H         1     PTL    0.0000
     75 H           2.1096   -0.6633    3.6013 H         1     PTL    0.0000
     76 H           2.2542    0.9691    2.8904 H         1     PTL    0.0000
     77 H           0.7263    1.0946    0.6265 H         1     PTX    0.0000
     78 H           4.5938    1.0901   -0.9656 H         1     PTX    0.0000
     79 H           5.0546    2.6340    0.6189 H         1     PTX    0.0000
     80 H           4.5069    1.6993    1.9565 H         1     PTX    0.0000
     81 H           7.1298    2.8999    2.0223 H         1     PTX    0.0000
     82 H           6.9005    1.0007   -0.7563 H         1     PTX    0.0000
     83 H           6.0286    4.9885   -3.2067 H         1     PTX    0.0000
     84 H           6.3704    7.3491   -3.4167 H         1     PTX    0.0000
     85 H           7.6264    8.5874   -1.7265 H         1     PTX    0.0000
     86 H           8.5447    7.4059    0.2075 H         1     PTX    0.0000
     87 H           8.2236    5.0465    0.4617 H         1     PTX    0.0000
     88 H           9.0380    0.5038    1.1116 H         1     PTX    0.0000
     89 H           8.3569    0.4334   -2.7017 H         1     PTX    0.0000
     90 H           8.5324   -1.3617   -2.7305 H         1     PTX    0.0000
     91 H           7.1488   -0.6071   -1.9550 H         1     PTX    0.0000
     92 H           7.1278   -2.8906    1.1194 H         1     PTX    0.0000
     93 H           7.1368   -4.1382   -3.2299 H         1     PTX    0.0000
     94 H           7.1499   -5.8088   -2.5511 H         1     PTX    0.0000
     95 H           5.6652   -4.7966   -2.3984 H         1     PTX    0.0000
     96 H           5.2424   -1.4150   -2.2502 H         1     PTX    0.0000
     97 H           4.3712   -2.5489   -1.1168 H         1     PTX    0.0000
     98 H           3.6036   -1.0780   -1.6983 H         1     PTX    0.0000
     99 H           5.3599    0.0968    3.7659 H         1     PTX    0.0000
    100 H           4.2797   -0.3385    2.4422 H         1     PTX    0.0000
    101 H           5.2261   -1.5981    3.1750 H         1     PTX    0.0000
    102 H           7.6843   -0.1082    3.7126 H         1     PTX    0.0000
    103 H           7.4803   -1.7907    3.1638 H         1     PTX    0.0000
    104 H           8.6517   -0.7457    2.4146 H         1     PTX    0.0000
    105 H          10.7556   -1.7339   -1.3383 H         1     PTX    0.0000
    106 H          11.6675    0.3108   -2.4955 H         1     PTX    0.0000
    107 H          11.4476   -0.5392    0.7818 H         1     PTX    0.0000
    108 H          12.5929   -0.2948   -0.5670 H         1     PTX    0.0000
    109 H          12.1280    1.8221    0.7093 H         1     PTX    0.0000
    110 H          10.2710    3.7603   -1.1802 H         1     PTX    0.0000
    111 H           9.6839    2.2803   -2.0680 H         1     PTX    0.0000
    112 H           8.9852    4.6010    2.8417 H         1     PTX    0.0000
    113 H          10.2719    3.6590    3.7034 H         1     PTX    0.0000
    114 H          10.6059    5.3343    3.1244 H         1     PTX    0.0000
    115 H          -0.8781   -0.0682   -0.6073 H         1     PTX    0.0000
    116 H           1.7116    0.3514   -1.6055 H         1     PTX    0.0000
    117 H           1.0765   -2.5363   -4.9018 H         1     PTX    0.0000
    118 H          -0.6198   -4.0030   -5.7243 H         1     PTX    0.0000
    119 H          -2.8883   -3.9284   -4.8155 H         1     PTX    0.0000
    120 H          -3.4333   -2.3035   -3.0728 H         1     PTX    0.0000
    121 H          -1.7860   -0.7937   -2.2588 H         1     PTX    0.0000
    122 H           1.8113   -2.6275   -1.2300 H         1     PTX    0.0000
    123 H           1.4683   -5.0031   -0.9834 H         1     PTX    0.0000
    124 H          -0.6151   -5.8578   -0.0251 H         1     PTX    0.0000
    125 H          -2.3523   -4.2880    0.6874 H         1     PTX    0.0000
    126 H          -2.0141   -1.9004    0.4416 H         1     PTX    0.0000
@<TRIPOS>BOND
     1     1     2     1
     2     1    69     1
     3     1    70     1
     4     1    71     1
     5     2     3     1
     6     3     4     1
     7     3     5     1
     8     3     7     1
     9     4    72     1
    10     4    73     1
    11     4    74     1
    12     5     6     1
    13     5    75     1
    14     5    76     1
    15     7     8     1
    16     8     9     1
    17     8    53     1
    18     8    77     1
    19     9    10     2
    20     9    11     1
    21    11    12     1
    22    12    13     1
    23    12    37     1
    24    12    78     1
    25    13    14     1
    26    13    79     1
    27    13    80     1
    28    14    15     1
    29    14    16     1
    30    14    39     1
    31    15    81     1
    32    16    17     1
    33    16    26     1
    34    16    82     1
    35    17    18     1
    36    18    19     2
    37    18    20     1
    38    20    21     1
    39    20    25     2
    40    21    22     2
    41    21    83     1
    42    22    23     1
    43    22    84     1
    44    23    24     2
    45    23    85     1
    46    24    25     1
    47    24    86     1
    48    25    87     1
    49    26    27     1
    50    26    48     1
    51    26    88     1
    52    27    28     1
    53    27    29     1
    54    27    42     1
    55    28    89     1
    56    28    90     1
    57    28    91     1
    58    29    30     2
    59    29    31     1
    60    31    32     1
    61    31    36     1
    62    31    92     1
    63    32    33     1
    64    33    34     1
    65    33    35     2
    66    34    93     1
    67    34    94     1
    68    34    95     1
    69    36    37     2
    70    36    39     1
    71    37    38     1
    72    38    96     1
    73    38    97     1
    74    38    98     1
    75    39    40     1
    76    39    41     1
    77    40    99     1
    78    40   100     1
    79    40   101     1
    80    41   102     1
    81    41   103     1
    82    41   104     1
    83    42    43     1
    84    42    44     1
    85    42   105     1
    86    43   106     1
    87    44    45     1
    88    44   107     1
    89    44   108     1
    90    45    46     1
    91    45    48     1
    92    45   109     1
    93    46    47     1
    94    47    48     1
    95    47   110     1
    96    47   111     1
    97    48    49     1
    98    49    50     1
    99    50    51     1
   100    50    52     2
   101    51   112     1
   102    51   113     1
   103    51   114     1
   104    53    54     1
   105    53    63     1
   106    53   115     1
   107    54    55     1
   108    54   116     1
   109    55    56     2
   110    55    57     1
   111    57    58     1
   112    57    62     2
   113    58    59     2
   114    58   117     1
   115    59    60     1
   116    59   118     1
   117    60    61     2
   118    60   119     1
   119    61    62     1
   120    61   120     1
   121    62   121     1
   122    63    64     1
   123    63    68     2
   124    64    65     2
   125    64   122     1
   126    65    66     1
   127    65   123     1
   128    66    67     2
   129    66   124     1
   130    67    68     1
   131    67   125     1
   132    68   126     1
