# created with PyMOL 2.5.4
@<TRIPOS>MOLECULE
PTX
126 132 2               
SMALL
USER_CHARGES
@<TRIPOS>ATOM
1	   C	-0.307	-1.735	4.241	C.3	1	PTL1	0.000	
2	   C	0.215	0.275	3.029	C.3	1	PTL1	0.000	
3	   C	-0.395	1.666	2.837	C.3	1	PTL1	0.000	
4	   C	1.635	0.340	3.566	C.3	1	PTL1	0.000	
5	   O	-0.669	-0.413	3.899	O.3	1	PTL1	0.000	
6	  Br	1.813	1.154	5.325	Br	1	PTL1	0.000	
7	   H	-1.144	-2.166	4.835	 H	1	PTL1	0.000	
8	   H	-0.167	-2.368	3.339	 H	1	PTL1	0.000	
9	   H	0.599	-1.749	4.883	 H	1	PTL1	0.000	
10	   H	0.296	2.375	2.330	 H	1	PTL1	0.000	
11	   H	-0.656	2.135	3.812	 H	1	PTL1	0.000	
12	   H	-1.338	1.618	2.246	 H	1	PTL1	0.000	
13	   H	2.110	-0.663	3.601	 H	1	PTL1	0.000	
14	   H	2.254	0.969	2.890	 H	1	PTL1	0.000	
15	   N	0.891	-0.240	-1.745	N.pl3	2	PTX1	0.000	
16	   C	0.809	-0.014	0.690	C.3	2	PTX1	0.000	
17	   C	2.297	-0.397	0.684	C.2	2	PTX1	0.000	
18	   C	4.427	0.617	0.039	C.3	2	PTX1	0.000	
19	   C	5.099	1.596	1.021	C.3	2	PTX1	0.000	
20	   C	6.549	1.176	1.347	C.3	2	PTX1	0.000	
21	   C	7.427	1.450	0.098	C.3	2	PTX1	0.000	
22	   C	6.932	3.478	-1.198	C.2	2	PTX1	0.000	
23	   C	7.104	4.827	-1.354	C.2	2	PTX1	0.000	
24	   C	6.602	5.494	-2.412	C.2	2	PTX1	0.000	
25	   C	6.786	6.818	-2.544	C.2	2	PTX1	0.000	
26	   C	7.475	7.501	-1.618	C.2	2	PTX1	0.000	
27	   C	7.978	6.851	-0.559	C.2	2	PTX1	0.000	
28	   C	7.791	5.528	-0.430	C.2	2	PTX1	0.000	
29	   C	8.860	0.855	0.076	C.3	2	PTX1	0.000	
30	   C	9.052	-0.448	-0.785	C.3	2	PTX1	0.000	
31	   C	8.237	-0.493	-2.099	C.3	2	PTX1	0.000	
32	   C	8.632	-1.672	0.091	C.2	2	PTX1	0.000	
33	   C	7.178	-2.199	0.245	C.3	2	PTX1	0.000	
34	   C	7.280	-4.223	-1.066	C.2	2	PTX1	0.000	
35	   C	6.779	-4.772	-2.387	C.3	2	PTX1	0.000	
36	   C	6.183	-1.093	0.595	C.2	2	PTX1	0.000	
37	   C	5.113	-0.732	-0.158	C.2	2	PTX1	0.000	
38	   C	4.581	-1.485	-1.362	C.3	2	PTX1	0.000	
39	   C	6.469	-0.286	1.866	C.3	2	PTX1	0.000	
40	   C	5.284	-0.534	2.851	C.3	2	PTX1	0.000	
41	   C	7.623	-0.748	2.803	C.3	2	PTX1	0.000	
42	   C	10.540	-0.646	-1.198	C.3	2	PTX1	0.000	
43	   C	11.557	-0.065	-0.221	C.3	2	PTX1	0.000	
44	   C	11.412	1.436	-0.051	C.3	2	PTX1	0.000	
45	   C	10.273	2.652	-1.204	C.3	2	PTX1	0.000	
46	   C	9.971	1.926	0.110	C.3	2	PTX1	0.000	
47	   C	10.561	3.820	1.559	C.2	2	PTX1	0.000	
48	   C	10.077	4.385	2.882	C.3	2	PTX1	0.000	
49	   C	0.103	-0.596	-0.557	C.3	2	PTX1	0.000	
50	   C	0.796	-0.741	-3.017	C.2	2	PTX1	0.000	
51	   C	-0.196	-1.562	-3.473	C.2	2	PTX1	0.000	
52	   C	0.071	-2.445	-4.458	C.2	2	PTX1	0.000	
53	   C	-0.869	-3.281	-4.928	C.2	2	PTX1	0.000	
54	   C	-2.113	-3.246	-4.430	C.2	2	PTX1	0.000	
55	   C	-2.405	-2.359	-3.470	C.2	2	PTX1	0.000	
56	   C	-1.459	-1.527	-3.006	C.2	2	PTX1	0.000	
57	   C	-0.082	-2.100	-0.416	C.2	2	PTX1	0.000	
58	   C	0.863	-2.979	-0.796	C.2	2	PTX1	0.000	
59	   C	0.680	-4.302	-0.662	C.2	2	PTX1	0.000	
60	   C	-0.461	-4.772	-0.137	C.2	2	PTX1	0.000	
61	   C	-1.412	-3.910	0.252	C.2	2	PTX1	0.000	
62	   C	-1.219	-2.590	0.113	C.2	2	PTX1	0.000	
63	   O	0.117	-0.472	1.832	O.3	2	PTX1	0.000	
64	   O	2.720	-1.462	1.072	O.co2	2	PTX1	0.000	
65	   O	3.022	0.637	0.175	O.3	2	PTX1	0.000	
66	   O	7.032	2.007	2.368	O.3	2	PTX1	0.000	
67	   O	7.474	2.841	-0.104	O.3	2	PTX1	0.000	
68	   O	6.310	2.840	-2.025	O.co2	2	PTX1	0.000	
69	   O	9.485	-2.248	0.734	O.2	2	PTX1	0.000	
70	   O	6.819	-2.953	-0.899	O.3	2	PTX1	0.000	
71	   O	7.984	-4.827	-0.289	O.co2	2	PTX1	0.000	
72	   O	10.796	-0.090	-2.470	O.3	2	PTX1	0.000	
73	   O	11.594	2.141	-1.257	O.3	2	PTX1	0.000	
74	   O	9.822	2.720	1.251	O.3	2	PTX1	0.000	
75	   O	11.461	4.301	0.910	O.co2	2	PTX1	0.000	
76	   O	1.780	-0.527	-3.688	O.2	2	PTX1	0.000	
77	   H	0.726	1.095	0.627	 H	2	PTX1	0.000	
78	   H	4.594	1.090	-0.966	 H	2	PTX1	0.000	
79	   H	5.055	2.634	0.619	 H	2	PTX1	0.000	
80	   H	4.507	1.699	1.957	 H	2	PTX1	0.000	
81	   H	7.130	2.900	2.022	 H	2	PTX1	0.000	
82	   H	6.900	1.001	-0.756	 H	2	PTX1	0.000	
83	   H	6.029	4.989	-3.207	 H	2	PTX1	0.000	
84	   H	6.370	7.349	-3.417	 H	2	PTX1	0.000	
85	   H	7.626	8.587	-1.727	 H	2	PTX1	0.000	
86	   H	8.545	7.406	0.207	 H	2	PTX1	0.000	
87	   H	8.224	5.047	0.462	 H	2	PTX1	0.000	
88	   H	9.038	0.504	1.112	 H	2	PTX1	0.000	
89	   H	8.357	0.433	-2.702	 H	2	PTX1	0.000	
90	   H	8.532	-1.362	-2.730	 H	2	PTX1	0.000	
91	   H	7.149	-0.607	-1.955	 H	2	PTX1	0.000	
92	   H	7.128	-2.891	1.119	 H	2	PTX1	0.000	
93	   H	7.137	-4.138	-3.230	 H	2	PTX1	0.000	
94	   H	7.150	-5.809	-2.551	 H	2	PTX1	0.000	
95	   H	5.665	-4.797	-2.398	 H	2	PTX1	0.000	
96	   H	5.242	-1.415	-2.250	 H	2	PTX1	0.000	
97	   H	4.371	-2.549	-1.117	 H	2	PTX1	0.000	
98	   H	3.604	-1.078	-1.698	 H	2	PTX1	0.000	
99	   H	5.360	0.097	3.766	 H	2	PTX1	0.000	
100	   H	4.280	-0.338	2.442	 H	2	PTX1	0.000	
101	   H	5.226	-1.598	3.175	 H	2	PTX1	0.000	
102	   H	7.684	-0.108	3.713	 H	2	PTX1	0.000	
103	   H	7.480	-1.791	3.164	 H	2	PTX1	0.000	
104	   H	8.652	-0.746	2.415	 H	2	PTX1	0.000	
105	   H	10.756	-1.734	-1.338	 H	2	PTX1	0.000	
106	   H	11.667	0.311	-2.496	 H	2	PTX1	0.000	
107	   H	11.448	-0.539	0.782	 H	2	PTX1	0.000	
108	   H	12.593	-0.295	-0.567	 H	2	PTX1	0.000	
109	   H	12.128	1.822	0.709	 H	2	PTX1	0.000	
110	   H	10.271	3.760	-1.180	 H	2	PTX1	0.000	
111	   H	9.684	2.280	-2.068	 H	2	PTX1	0.000	
112	   H	8.985	4.601	2.842	 H	2	PTX1	0.000	
113	   H	10.272	3.659	3.703	 H	2	PTX1	0.000	
114	   H	10.606	5.334	3.124	 H	2	PTX1	0.000	
115	   H	-0.878	-0.068	-0.607	 H	2	PTX1	0.000	
116	   H	1.712	0.351	-1.605	 H	2	PTX1	0.000	
117	   H	1.077	-2.536	-4.902	 H	2	PTX1	0.000	
118	   H	-0.620	-4.003	-5.724	 H	2	PTX1	0.000	
119	   H	-2.888	-3.928	-4.815	 H	2	PTX1	0.000	
120	   H	-3.433	-2.303	-3.073	 H	2	PTX1	0.000	
121	   H	-1.786	-0.794	-2.259	 H	2	PTX1	0.000	
122	   H	1.811	-2.628	-1.230	 H	2	PTX1	0.000	
123	   H	1.468	-5.003	-0.983	 H	2	PTX1	0.000	
124	   H	-0.615	-5.858	-0.025	 H	2	PTX1	0.000	
125	   H	-2.352	-4.288	0.687	 H	2	PTX1	0.000	
126	   H	-2.014	-1.900	0.442	 H	2	PTX1	0.000	
@<TRIPOS>BOND
1 1 5 1
2 1 7 1
3 1 8 1
4 1 9 1
5 2 3 1
6 2 4 1
7 2 63 1
8 3 10 1
9 3 11 1
10 3 12 1
11 4 6 1
12 4 13 1
13 4 14 1
14 2 5 1
15 15 50 1
16 15 116 1
17 16 17 1
18 16 49 1
19 16 77 1
20 17 64 2
21 17 65 1
22 18 19 1
23 18 37 1
24 18 78 1
25 19 20 1
26 19 79 1
27 19 80 1
28 20 21 1
29 20 39 1
30 20 66 1
31 21 29 1
32 21 67 1
33 21 82 1
34 22 23 1
35 22 68 2
36 23 24 1
37 23 28 2
38 24 25 2
39 24 83 1
40 25 26 1
41 25 84 1
42 26 27 2
43 26 85 1
44 27 28 1
45 27 86 1
46 28 87 1
47 29 30 1
48 29 46 1
49 29 88 1
50 30 31 1
51 30 32 1
52 30 42 1
53 31 89 1
54 31 90 1
55 31 91 1
56 32 33 1
57 32 69 2
58 33 36 1
59 33 70 1
60 33 92 1
61 34 35 1
62 34 71 2
63 35 93 1
64 35 94 1
65 35 95 1
66 36 37 2
67 36 39 1
68 37 38 1
69 38 96 1
70 38 97 1
71 38 98 1
72 39 40 1
73 39 41 1
74 40 99 1
75 40 100 1
76 40 101 1
77 41 102 1
78 41 103 1
79 41 104 1
80 42 43 1
81 42 72 1
82 42 105 1
83 43 44 1
84 43 107 1
85 43 108 1
86 44 46 1
87 44 73 1
88 44 109 1
89 45 46 1
90 45 110 1
91 45 111 1
92 46 74 1
93 47 48 1
94 47 75 2
95 48 112 1
96 48 113 1
97 48 114 1
98 15 49 1
99 49 57 1
100 49 115 1
101 50 51 1
102 50 76 2
103 51 52 1
104 51 56 2
105 52 53 2
106 52 117 1
107 53 54 1
108 53 118 1
109 54 55 2
110 54 119 1
111 55 56 1
112 55 120 1
113 56 121 1
114 57 58 1
115 57 62 2
116 58 59 2
117 58 122 1
118 59 60 1
119 59 123 1
120 60 61 2
121 60 124 1
122 61 62 1
123 61 125 1
124 62 126 1
125 16 63 1
126 18 65 1
127 66 81 1
128 22 67 1
129 34 70 1
130 72 106 1
131 45 73 1
132 47 74 1
@<TRIPOS>SUBSTRUCTURE
1	PTL1	1	GROUP	1 ****	PTL
2	PTX1	15	GROUP	1 ****	PTX
