@<TRIPOS>MOLECULE
LST
117 120 1 0 0
SMALL
USER_CHARGES


@<TRIPOS>ATOM
      1 C           1.7557    4.9559    6.0616 C.ar      1     LST    0.0000
      2 N           2.2732    3.7502    6.1125 N.ar      1     LST    0.0000
      3 C           1.5651    3.0136    5.1985 C.ar      1     LST    0.0000
      4 C           0.6068    3.7872    4.5879 C.ar      1     LST    0.0000
      5 N           0.7409    5.0265    5.1501 N.ar      1     LST    0.0000
      6 C          -0.3711    3.3647    3.5361 C.3       1     LST    0.0000
      7 O          -0.1779    2.0092    3.2349 O.3       1     LST    0.0000
      8 C          -0.0606    6.2169    4.8317 C.3       1     LST    0.0000
      9 C           2.5466    9.5058    3.9594 C.ar      1     LST    0.0000
     10 C           3.0813    8.2612    4.2919 C.ar      1     LST    0.0000
     11 C           2.2329    7.1910    4.5757 C.ar      1     LST    0.0000
     12 C           0.8499    7.3655    4.5271 C.ar      1     LST    0.0000
     13 C           0.3152    8.6101    4.1947 C.ar      1     LST    0.0000
     14 C           1.1636    9.6803    3.9108 C.ar      1     LST    0.0000
     15 C           3.3597   10.5316    3.6872 C.ar      1     LST    0.0000
     16 C           2.8807   11.7627    4.1350 C.ar      1     LST    0.0000
     17 C           3.7726   12.7977    4.4160 C.ar      1     LST    0.0000
     18 C           5.1434   12.6015    4.2494 C.ar      1     LST    0.0000
     19 C           5.6225   11.3704    3.8018 C.ar      1     LST    0.0000
     20 C           4.7306   10.3354    3.5206 C.ar      1     LST    0.0000
     21 N           0.7902   12.7064    3.5053 N.ar      1     LST    0.0000
     22 N          -0.6252   12.6715    4.0027 N.ar      1     LST    0.0000
     23 N          -0.5071   11.7722    5.1983 N.ar      1     LST    0.0000
     24 N           0.7647   11.3733    5.3412 N.ar      1     LST    0.0000
     25 C           1.5666   11.9507    4.2948 C.ar      1     LST    0.0000
     26 Cl          1.8383    1.3501    4.8619 Cl        1     LST    0.0000
     27 C           2.2196    6.1081    6.8972 C.3       1     LST    0.0000
     28 C           3.3647    5.6570    7.7943 C.3       1     LST    0.0000
     29 C           3.8367    6.8292    8.6444 C.3       1     LST    0.0000
     30 C           4.9818    6.3781    9.5415 C.3       1     LST    0.0000
     31 C          -1.1176    1.6751    2.2496 C.3       1     LSL    0.0000
     32 O          -0.9736    0.3239    1.9044 O.3       1     LSL    0.0000
     33 C          -2.5224    1.9140    2.7871 C.3       1     LSL    0.0000
     34 C          -0.8903    2.5406    1.0172 C.3       1     LSL    0.0000
     35 C          -1.9352    0.0521    0.9210 C.3       1     LSL    0.0000
     36 C          -1.8325   -1.4077    0.4993 C.3       1     LSL    0.0000
     37 C          -2.8771   -1.7029   -0.5690 C.3       1     LSL    0.0000
     38 C          -2.7744   -3.1628   -0.9908 C.3       1     LSL    0.0000
     39 C          -3.8190   -3.4580   -2.0591 C.3       1     LSL    0.0000
     40 C          -3.7163   -4.9178   -2.4808 C.3       1     LSL    0.0000
     41 C          -4.7609   -5.2131   -3.5491 C.3       1     LSL    0.0000
     42 C          -4.6582   -6.6729   -3.9708 C.3       1     LSL    0.0000
     43 C          -5.7028   -6.9681   -5.0391 C.3       1     LSL    0.0000
     44 C          -5.6001   -8.4279   -5.4609 C.3       1     LSL    0.0000
     45 C          -6.6447   -8.7232   -6.5291 C.3       1     LSL    0.0000
     46 C          -6.5421  -10.1830   -6.9509 C.3       1     LSL    0.0000
     47 C          -7.5866  -10.4782   -8.0192 C.3       1     LSL    0.0000
     48 C          -7.4840  -11.9381   -8.4409 C.3       1     LSL    0.0000
     49 C          -8.5286  -12.2333   -9.5092 C.3       1     LSL    0.0000
     50 C          -8.4259  -13.6931   -9.9310 C.3       1     LSL    0.0000
     51 C          -9.4705  -13.9883  -10.9992 C.3       1     LSL    0.0000
     52 C          -9.3678  -15.4482  -11.4210 C.3       1     LSL    0.0000
     53 H          -0.2143    3.9742    2.6182 H         1     LST    0.0000
     54 H          -1.4079    3.5171    3.9111 H         1     LST    0.0000
     55 H          -0.7034    6.4747    5.7030 H         1     LST    0.0000
     56 H          -0.7013    6.0067    3.9462 H         1     LST    0.0000
     57 H           4.1719    8.1236    4.3303 H         1     LST    0.0000
     58 H           2.6545    6.2094    4.8378 H         1     LST    0.0000
     59 H          -0.7755    8.7477    4.1564 H         1     LST    0.0000
     60 H           0.7419   10.6619    3.6486 H         1     LST    0.0000
     61 H           3.3948   13.7686    4.7690 H         1     LST    0.0000
     62 H           5.8467   13.4177    4.4711 H         1     LST    0.0000
     63 H           6.7036   11.2157    3.6705 H         1     LST    0.0000
     64 H           5.1084    9.3645    3.1676 H         1     LST    0.0000
     65 H          -1.4512   13.1371    3.6266 H         1     LST    0.0000
     66 H           1.3770    6.4720    7.5268 H         1     LST    0.0000
     67 H           2.5700    6.9301    6.2336 H         1     LST    0.0000
     68 H           4.2073    5.2931    7.1647 H         1     LST    0.0000
     69 H           3.0143    4.8350    8.4578 H         1     LST    0.0000
     70 H           2.9941    7.1931    9.2740 H         1     LST    0.0000
     71 H           4.1871    7.6512    7.9808 H         1     LST    0.0000
     72 H           5.3267    7.2348   10.1628 H         1     LST    0.0000
     73 H           5.8244    6.0142    8.9119 H         1     LST    0.0000
     74 H           4.6314    5.5562   10.2050 H         1     LST    0.0000
     75 H          -3.2693    1.6491    2.0056 H         1     LSL    0.0000
     76 H          -2.6370    2.9868    3.0605 H         1     LSL    0.0000
     77 H          -2.6875    1.2811    3.6876 H         1     LSL    0.0000
     78 H          -0.0336    3.2276    1.1986 H         1     LSL    0.0000
     79 H          -0.6642    1.8892    0.1435 H         1     LSL    0.0000
     80 H          -1.8064    3.1373    0.8090 H         1     LSL    0.0000
     81 H          -2.9508    0.2485    1.3317 H         1     LSL    0.0000
     82 H          -1.7580    0.7065    0.0383 H         1     LSL    0.0000
     83 H          -0.8169   -1.6041    0.0886 H         1     LSL    0.0000
     84 H          -2.0096   -2.0621    1.3820 H         1     LSL    0.0000
     85 H          -3.8927   -1.5065   -0.1583 H         1     LSL    0.0000
     86 H          -2.6999   -1.0486   -1.4518 H         1     LSL    0.0000
     87 H          -1.7588   -3.3592   -1.4015 H         1     LSL    0.0000
     88 H          -2.9516   -3.8171   -0.1081 H         1     LSL    0.0000
     89 H          -4.8346   -3.2616   -1.6484 H         1     LSL    0.0000
     90 H          -3.6418   -2.8036   -2.9418 H         1     LSL    0.0000
     91 H          -2.7007   -5.1142   -2.8915 H         1     LSL    0.0000
     92 H          -3.8935   -5.5722   -1.5981 H         1     LSL    0.0000
     93 H          -5.7765   -5.0166   -3.1384 H         1     LSL    0.0000
     94 H          -4.5838   -4.5587   -4.4318 H         1     LSL    0.0000
     95 H          -3.6426   -6.8693   -4.3815 H         1     LSL    0.0000
     96 H          -4.8354   -7.3272   -3.0881 H         1     LSL    0.0000
     97 H          -6.7185   -6.7717   -4.6284 H         1     LSL    0.0000
     98 H          -5.5257   -6.3138   -5.9218 H         1     LSL    0.0000
     99 H          -4.5845   -8.6244   -5.8715 H         1     LSL    0.0000
    100 H          -5.7773   -9.0823   -4.5781 H         1     LSL    0.0000
    101 H          -7.6604   -8.5268   -6.1185 H         1     LSL    0.0000
    102 H          -6.4676   -8.0688   -7.4119 H         1     LSL    0.0000
    103 H          -5.5264  -10.3794   -7.3616 H         1     LSL    0.0000
    104 H          -6.7192  -10.8374   -6.0682 H         1     LSL    0.0000
    105 H          -8.6023  -10.2818   -7.6085 H         1     LSL    0.0000
    106 H          -7.4095   -9.8239   -8.9019 H         1     LSL    0.0000
    107 H          -6.4683  -12.1345   -8.8516 H         1     LSL    0.0000
    108 H          -7.6611  -12.5924   -7.5582 H         1     LSL    0.0000
    109 H          -9.5442  -12.0369   -9.0985 H         1     LSL    0.0000
    110 H          -8.3514  -11.5789  -10.3919 H         1     LSL    0.0000
    111 H          -7.4102  -13.8895  -10.3416 H         1     LSL    0.0000
    112 H          -8.6030  -14.3475   -9.0482 H         1     LSL    0.0000
    113 H         -10.4861  -13.7919  -10.5885 H         1     LSL    0.0000
    114 H          -9.2933  -13.3340  -11.8820 H         1     LSL    0.0000
    115 H         -10.1312  -15.6639  -12.2017 H         1     LSL    0.0000
    116 H          -8.3522  -15.6446  -11.8317 H         1     LSL    0.0000
    117 H          -9.5449  -16.1025  -10.5383 H         1     LSL    0.0000
@<TRIPOS>BOND
     1     1     2     2
     2     1     5     1
     3     1    27     1
     4     2     3     1
     5     3     4     2
     6     3    26     1
     7     4     5     1
     8     4     6     1
     9     5     8     1
    10     6     7     1
    11     6    53     1
    12     6    54     1
    13     7    31     1
    14     8    12     1
    15     8    55     1
    16     8    56     1
    17     9    10     1
    18     9    14     2
    19     9    15     1
    20    10    11     2
    21    10    57     1
    22    11    12     1
    23    11    58     1
    24    12    13     2
    25    13    14     1
    26    13    59     1
    27    14    60     1
    28    15    16     1
    29    15    20     2
    30    16    17     2
    31    16    25     1
    32    17    18     1
    33    17    61     1
    34    18    19     2
    35    18    62     1
    36    19    20     1
    37    19    63     1
    38    20    64     1
    39    21    22     1
    40    21    25     2
    41    22    23     1
    42    22    65     1
    43    23    24     2
    44    24    25     1
    45    27    28     1
    46    27    66     1
    47    27    67     1
    48    28    29     1
    49    28    68     1
    50    28    69     1
    51    29    30     1
    52    29    70     1
    53    29    71     1
    54    30    72     1
    55    30    73     1
    56    30    74     1
    57    31    32     1
    58    31    33     1
    59    31    34     1
    60    32    35     1
    61    33    75     1
    62    33    76     1
    63    33    77     1
    64    34    78     1
    65    34    79     1
    66    34    80     1
    67    35    36     1
    68    35    81     1
    69    35    82     1
    70    36    37     1
    71    36    83     1
    72    36    84     1
    73    37    38     1
    74    37    85     1
    75    37    86     1
    76    38    39     1
    77    38    87     1
    78    38    88     1
    79    39    40     1
    80    39    89     1
    81    39    90     1
    82    40    41     1
    83    40    91     1
    84    40    92     1
    85    41    42     1
    86    41    93     1
    87    41    94     1
    88    42    43     1
    89    42    95     1
    90    42    96     1
    91    43    44     1
    92    43    97     1
    93    43    98     1
    94    44    45     1
    95    44    99     1
    96    44   100     1
    97    45    46     1
    98    45   101     1
    99    45   102     1
   100    46    47     1
   101    46   103     1
   102    46   104     1
   103    47    48     1
   104    47   105     1
   105    47   106     1
   106    48    49     1
   107    48   107     1
   108    48   108     1
   109    49    50     1
   110    49   109     1
   111    49   110     1
   112    50    51     1
   113    50   111     1
   114    50   112     1
   115    51    52     1
   116    51   113     1
   117    51   114     1
   118    52   115     1
   119    52   116     1
   120    52   117     1
