# created with PyMOL 2.5.4
@<TRIPOS>MOLECULE
LST
117 120 2               
SMALL
USER_CHARGES
@<TRIPOS>ATOM
1	   C	-1.118	1.675	2.250	C.3	1	LSL1	0.000	
2	   C	-2.522	1.914	2.787	C.3	1	LSL1	0.000	
3	   C	-0.890	2.541	1.017	C.3	1	LSL1	0.000	
4	   C	-1.935	0.052	0.921	C.3	1	LSL1	0.000	
5	   C	-1.832	-1.408	0.499	C.3	1	LSL1	0.000	
6	   C	-2.877	-1.703	-0.569	C.3	1	LSL1	0.000	
7	   C	-2.774	-3.163	-0.991	C.3	1	LSL1	0.000	
8	   C	-3.819	-3.458	-2.059	C.3	1	LSL1	0.000	
9	   C	-3.716	-4.918	-2.481	C.3	1	LSL1	0.000	
10	   C	-4.761	-5.213	-3.549	C.3	1	LSL1	0.000	
11	   C	-4.658	-6.673	-3.971	C.3	1	LSL1	0.000	
12	   C	-5.703	-6.968	-5.039	C.3	1	LSL1	0.000	
13	   C	-5.600	-8.428	-5.461	C.3	1	LSL1	0.000	
14	   C	-6.645	-8.723	-6.529	C.3	1	LSL1	0.000	
15	   C	-6.542	-10.183	-6.951	C.3	1	LSL1	0.000	
16	   C	-7.587	-10.478	-8.019	C.3	1	LSL1	0.000	
17	   C	-7.484	-11.938	-8.441	C.3	1	LSL1	0.000	
18	   C	-8.529	-12.233	-9.509	C.3	1	LSL1	0.000	
19	   C	-8.426	-13.693	-9.931	C.3	1	LSL1	0.000	
20	   C	-9.470	-13.988	-10.999	C.3	1	LSL1	0.000	
21	   C	-9.368	-15.448	-11.421	C.3	1	LSL1	0.000	
22	   O	-0.974	0.324	1.904	O.3	1	LSL1	0.000	
23	   H	-3.269	1.649	2.006	 H	1	LSL1	0.000	
24	   H	-2.637	2.987	3.060	 H	1	LSL1	0.000	
25	   H	-2.688	1.281	3.688	 H	1	LSL1	0.000	
26	   H	-0.034	3.228	1.199	 H	1	LSL1	0.000	
27	   H	-0.664	1.889	0.144	 H	1	LSL1	0.000	
28	   H	-1.806	3.137	0.809	 H	1	LSL1	0.000	
29	   H	-2.951	0.249	1.332	 H	1	LSL1	0.000	
30	   H	-1.758	0.706	0.038	 H	1	LSL1	0.000	
31	   H	-0.817	-1.604	0.089	 H	1	LSL1	0.000	
32	   H	-2.010	-2.062	1.382	 H	1	LSL1	0.000	
33	   H	-3.893	-1.507	-0.158	 H	1	LSL1	0.000	
34	   H	-2.700	-1.049	-1.452	 H	1	LSL1	0.000	
35	   H	-1.759	-3.359	-1.401	 H	1	LSL1	0.000	
36	   H	-2.952	-3.817	-0.108	 H	1	LSL1	0.000	
37	   H	-4.835	-3.262	-1.648	 H	1	LSL1	0.000	
38	   H	-3.642	-2.804	-2.942	 H	1	LSL1	0.000	
39	   H	-2.701	-5.114	-2.891	 H	1	LSL1	0.000	
40	   H	-3.894	-5.572	-1.598	 H	1	LSL1	0.000	
41	   H	-5.777	-5.017	-3.138	 H	1	LSL1	0.000	
42	   H	-4.584	-4.559	-4.432	 H	1	LSL1	0.000	
43	   H	-3.643	-6.869	-4.381	 H	1	LSL1	0.000	
44	   H	-4.835	-7.327	-3.088	 H	1	LSL1	0.000	
45	   H	-6.719	-6.772	-4.628	 H	1	LSL1	0.000	
46	   H	-5.526	-6.314	-5.922	 H	1	LSL1	0.000	
47	   H	-4.584	-8.624	-5.872	 H	1	LSL1	0.000	
48	   H	-5.777	-9.082	-4.578	 H	1	LSL1	0.000	
49	   H	-7.660	-8.527	-6.119	 H	1	LSL1	0.000	
50	   H	-6.468	-8.069	-7.412	 H	1	LSL1	0.000	
51	   H	-5.526	-10.379	-7.362	 H	1	LSL1	0.000	
52	   H	-6.719	-10.837	-6.068	 H	1	LSL1	0.000	
53	   H	-8.602	-10.282	-7.609	 H	1	LSL1	0.000	
54	   H	-7.410	-9.824	-8.902	 H	1	LSL1	0.000	
55	   H	-6.468	-12.134	-8.852	 H	1	LSL1	0.000	
56	   H	-7.661	-12.592	-7.558	 H	1	LSL1	0.000	
57	   H	-9.544	-12.037	-9.099	 H	1	LSL1	0.000	
58	   H	-8.351	-11.579	-10.392	 H	1	LSL1	0.000	
59	   H	-7.410	-13.889	-10.342	 H	1	LSL1	0.000	
60	   H	-8.603	-14.347	-9.048	 H	1	LSL1	0.000	
61	   H	-10.486	-13.792	-10.589	 H	1	LSL1	0.000	
62	   H	-9.293	-13.334	-11.882	 H	1	LSL1	0.000	
63	   H	-10.131	-15.664	-12.202	 H	1	LSL1	0.000	
64	   H	-8.352	-15.645	-11.832	 H	1	LSL1	0.000	
65	   H	-9.545	-16.103	-10.538	 H	1	LSL1	0.000	
66	   N	2.273	3.750	6.113	N.2	2	LST1	0.000	
67	   N	0.741	5.027	5.150	N.pl3	2	LST1	0.000	
68	   N	0.790	12.706	3.505	N.2	2	LST1	0.000	
69	   N	-0.625	12.672	4.003	N.pl3	2	LST1	0.000	
70	   N	-0.507	11.772	5.198	N.2	2	LST1	0.000	
71	   N	0.765	11.373	5.341	N.2	2	LST1	0.000	
72	   C	1.756	4.956	6.062	C.2	2	LST1	0.000	
73	   C	1.565	3.014	5.199	C.2	2	LST1	0.000	
74	   C	0.607	3.787	4.588	C.2	2	LST1	0.000	
75	   C	-0.371	3.365	3.536	C.3	2	LST1	0.000	
76	   C	-0.061	6.217	4.832	C.3	2	LST1	0.000	
77	   C	2.547	9.506	3.959	C.2	2	LST1	0.000	
78	   C	3.081	8.261	4.292	C.2	2	LST1	0.000	
79	   C	2.233	7.191	4.576	C.2	2	LST1	0.000	
80	   C	0.850	7.365	4.527	C.2	2	LST1	0.000	
81	   C	0.315	8.610	4.195	C.2	2	LST1	0.000	
82	   C	1.164	9.680	3.911	C.2	2	LST1	0.000	
83	   C	3.360	10.532	3.687	C.2	2	LST1	0.000	
84	   C	2.881	11.763	4.135	C.2	2	LST1	0.000	
85	   C	3.773	12.798	4.416	C.2	2	LST1	0.000	
86	   C	5.143	12.601	4.249	C.2	2	LST1	0.000	
87	   C	5.622	11.370	3.802	C.2	2	LST1	0.000	
88	   C	4.731	10.335	3.521	C.2	2	LST1	0.000	
89	   C	1.567	11.951	4.295	C.2	2	LST1	0.000	
90	   C	2.220	6.108	6.897	C.3	2	LST1	0.000	
91	   C	3.365	5.657	7.794	C.3	2	LST1	0.000	
92	   C	3.837	6.829	8.644	C.3	2	LST1	0.000	
93	   C	4.982	6.378	9.542	C.3	2	LST1	0.000	
94	   O	-0.178	2.009	3.235	O.3	2	LST1	0.000	
95	  Cl	1.838	1.350	4.862	Cl	2	LST1	0.000	
96	   H	-0.214	3.974	2.618	 H	2	LST1	0.000	
97	   H	-1.408	3.517	3.911	 H	2	LST1	0.000	
98	   H	-0.703	6.475	5.703	 H	2	LST1	0.000	
99	   H	-0.701	6.007	3.946	 H	2	LST1	0.000	
100	   H	4.172	8.124	4.330	 H	2	LST1	0.000	
101	   H	2.655	6.209	4.838	 H	2	LST1	0.000	
102	   H	-0.775	8.748	4.156	 H	2	LST1	0.000	
103	   H	0.742	10.662	3.649	 H	2	LST1	0.000	
104	   H	3.395	13.769	4.769	 H	2	LST1	0.000	
105	   H	5.847	13.418	4.471	 H	2	LST1	0.000	
106	   H	6.704	11.216	3.671	 H	2	LST1	0.000	
107	   H	5.108	9.365	3.168	 H	2	LST1	0.000	
108	   H	-1.451	13.137	3.627	 H	2	LST1	0.000	
109	   H	1.377	6.472	7.527	 H	2	LST1	0.000	
110	   H	2.570	6.930	6.234	 H	2	LST1	0.000	
111	   H	4.207	5.293	7.165	 H	2	LST1	0.000	
112	   H	3.014	4.835	8.458	 H	2	LST1	0.000	
113	   H	2.994	7.193	9.274	 H	2	LST1	0.000	
114	   H	4.187	7.651	7.981	 H	2	LST1	0.000	
115	   H	5.327	7.235	10.163	 H	2	LST1	0.000	
116	   H	5.824	6.014	8.912	 H	2	LST1	0.000	
117	   H	4.631	5.556	10.205	 H	2	LST1	0.000	
@<TRIPOS>BOND
1 1 2 1
2 1 3 1
3 1 22 1
4 2 23 1
5 2 24 1
6 2 25 1
7 3 26 1
8 3 27 1
9 3 28 1
10 4 5 1
11 4 29 1
12 4 30 1
13 5 6 1
14 5 31 1
15 5 32 1
16 6 7 1
17 6 33 1
18 6 34 1
19 7 8 1
20 7 35 1
21 7 36 1
22 8 9 1
23 8 37 1
24 8 38 1
25 9 10 1
26 9 39 1
27 9 40 1
28 10 11 1
29 10 41 1
30 10 42 1
31 11 12 1
32 11 43 1
33 11 44 1
34 12 13 1
35 12 45 1
36 12 46 1
37 13 14 1
38 13 47 1
39 13 48 1
40 14 15 1
41 14 49 1
42 14 50 1
43 15 16 1
44 15 51 1
45 15 52 1
46 16 17 1
47 16 53 1
48 16 54 1
49 17 18 1
50 17 55 1
51 17 56 1
52 18 19 1
53 18 57 1
54 18 58 1
55 19 20 1
56 19 59 1
57 19 60 1
58 20 21 1
59 20 61 1
60 20 62 1
61 21 63 1
62 21 64 1
63 21 65 1
64 4 22 1
65 66 73 1
66 67 76 1
67 68 69 1
68 68 89 2
69 69 70 1
70 69 108 1
71 70 71 2
72 71 89 1
73 66 72 2
74 67 72 1
75 72 90 1
76 73 74 2
77 73 95 1
78 67 74 1
79 74 75 1
80 75 94 1
81 75 96 1
82 75 97 1
83 76 80 1
84 76 98 1
85 76 99 1
86 77 78 1
87 77 82 2
88 77 83 1
89 78 79 2
90 78 100 1
91 79 80 1
92 79 101 1
93 80 81 2
94 81 82 1
95 81 102 1
96 82 103 1
97 83 84 1
98 83 88 2
99 84 85 2
100 84 89 1
101 85 86 1
102 85 104 1
103 86 87 2
104 86 105 1
105 87 88 1
106 87 106 1
107 88 107 1
108 90 91 1
109 90 109 1
110 90 110 1
111 91 92 1
112 91 111 1
113 91 112 1
114 92 93 1
115 92 113 1
116 92 114 1
117 93 115 1
118 93 116 1
119 93 117 1
120 1 94 1
@<TRIPOS>SUBSTRUCTURE
1	LSL1	1	GROUP	1 ****	LSL
2	LST1	66	GROUP	1 ****	LST
