@<TRIPOS>MOLECULE
PTX
113 119 1 0 0
SMALL
USER_CHARGES


@<TRIPOS>ATOM
      1 O           2.6625    1.6563   -0.3150 O.2       1     PTX    0.0000
      2 C           3.0105    0.5718   -0.7237 C.2       1     PTX    0.0000
      3 C           4.2687    0.3534   -1.5624 C.3       1     PTX    0.0000
      4 O           5.3350   -0.0867   -0.7410 O.3       1     PTX    0.0000
      5 C           4.7240    1.6075   -2.3319 C.3       1     PTX    0.0000
      6 C           3.6184    1.9951   -3.3011 C.ar      1     PTX    0.0000
      7 C           3.3574    1.2520   -4.3924 C.ar      1     PTX    0.0000
      8 C           2.3725    1.5858   -5.2405 C.ar      1     PTX    0.0000
      9 C           1.6231    2.6731   -5.0063 C.ar      1     PTX    0.0000
     10 C           1.8658    3.4214   -3.9204 C.ar      1     PTX    0.0000
     11 C           2.8537    3.0805   -3.0789 C.ar      1     PTX    0.0000
     12 N           5.9716    1.2510   -3.0230 N.am      1     PTX    0.0000
     13 C           6.5231    1.8318   -4.1327 C.2       1     PTX    0.0000
     14 C           6.1421    3.0420   -4.6366 C.ar      1     PTX    0.0000
     15 C           6.2402    3.2807   -5.9604 C.ar      1     PTX    0.0000
     16 C           5.8658    4.4573   -6.4879 C.ar      1     PTX    0.0000
     17 C           5.3983    5.4331   -5.6967 C.ar      1     PTX    0.0000
     18 C           5.3238    5.2246   -4.3749 C.ar      1     PTX    0.0000
     19 C           5.6985    4.0447   -3.8555 C.ar      1     PTX    0.0000
     20 O           7.2831    1.1139   -4.7406 O.2       1     PTX    0.0000
     21 O           2.3497   -0.6106   -0.5779 O.3       1     PTX    0.0000
     22 C           1.0399   -0.6925   -0.0575 C.3       1     PTX    0.0000
     23 C           0.1634    0.5531   -0.1619 C.2       1     PTX    0.0000
     24 C           0.0117    1.0412   -1.5924 C.3       1     PTX    0.0000
     25 C          -0.4880    1.0436    0.9227 C.2       1     PTX    0.0000
     26 C          -1.6557    2.0269    0.8823 C.3       1     PTX    0.0000
     27 O          -1.9261    2.5385   -0.4109 O.3       1     PTX    0.0000
     28 C          -2.5314    3.7477   -0.5690 C.2       1     PTX    0.0000
     29 C          -2.7064    4.0330   -2.0481 C.3       1     PTX    0.0000
     30 O          -2.8784    4.4869    0.3233 O.2       1     PTX    0.0000
     31 C          -2.9565    1.4459    1.5024 C.2       1     PTX    0.0000
     32 O          -3.5035    2.1291    2.3436 O.2       1     PTX    0.0000
     33 C          -0.0731    0.5200    2.3027 C.3       1     PTX    0.0000
     34 C          -0.7416    1.1402    3.5647 C.3       1     PTX    0.0000
     35 C           1.3887    0.9992    2.5760 C.3       1     PTX    0.0000
     36 C          -0.2011   -1.0205    2.1462 C.3       1     PTX    0.0000
     37 C          -1.5038   -1.5701    1.5052 C.3       1     PTX    0.0000
     38 O          -1.4701   -2.9733    1.5825 O.3       1     PTX    0.0000
     39 C          -1.4080   -3.8014    0.4828 C.2       1     PTX    0.0000
     40 C          -1.4807   -5.1581    0.6493 C.ar      1     PTX    0.0000
     41 C          -1.4376   -6.0091   -0.3951 C.ar      1     PTX    0.0000
     42 C          -1.5135   -7.3365   -0.2068 C.ar      1     PTX    0.0000
     43 C          -1.6337   -7.8387    1.0306 C.ar      1     PTX    0.0000
     44 C          -1.6756   -7.0040    2.0788 C.ar      1     PTX    0.0000
     45 C          -1.5984   -5.6778    1.8870 C.ar      1     PTX    0.0000
     46 O          -1.2993   -3.3255   -0.6305 O.2       1     PTX    0.0000
     47 C          -2.8565   -1.0341    2.0422 C.3       1     PTX    0.0000
     48 C          -3.5704    0.0516    1.1535 C.3       1     PTX    0.0000
     49 C          -3.4406   -0.1594   -0.3727 C.3       1     PTX    0.0000
     50 C          -5.0982    0.1157    1.4479 C.3       1     PTX    0.0000
     51 O          -5.8246   -0.7061    0.5584 O.3       1     PTX    0.0000
     52 C          -5.4903   -0.2714    2.8700 C.3       1     PTX    0.0000
     53 C          -5.1035   -1.6979    3.2152 C.3       1     PTX    0.0000
     54 C          -3.6953   -2.1041    2.7721 C.3       1     PTX    0.0000
     55 O          -2.9558   -2.6373    3.8316 O.3       1     PTX    0.0000
     56 C          -3.3399   -3.6680    4.6335 C.2       1     PTX    0.0000
     57 C          -2.2472   -3.9329    5.6533 C.3       1     PTX    0.0000
     58 O          -4.3716   -4.2953    4.5725 O.2       1     PTX    0.0000
     59 C          -4.4640   -3.0990    1.8979 C.3       1     PTX    0.0000
     60 O          -5.7193   -2.6473    2.3755 O.3       1     PTX    0.0000
     61 O          -0.0850   -1.6314    3.4032 O.3       1     PTX    0.0000
     62 C           0.9949   -1.4637    1.2748 C.3       1     PTX    0.0000
     63 H           4.0838   -0.4751   -2.2852 H         1     PTX    0.0000
     64 H           5.1914   -0.9894   -0.4484 H         1     PTX    0.0000
     65 H           4.9429    2.3940   -1.5745 H         1     PTX    0.0000
     66 H           3.9555    0.3504   -4.6039 H         1     PTX    0.0000
     67 H           2.1758    0.9638   -6.1298 H         1     PTX    0.0000
     68 H           0.8108    2.9481   -5.6993 H         1     PTX    0.0000
     69 H           1.2510    4.3144   -3.7178 H         1     PTX    0.0000
     70 H           3.0310    3.7095   -2.1911 H         1     PTX    0.0000
     71 H           6.4314    0.3940   -2.7161 H         1     PTX    0.0000
     72 H           6.6064    2.5133   -6.6632 H         1     PTX    0.0000
     73 H           5.9399    4.6245   -7.5758 H         1     PTX    0.0000
     74 H           5.0943    6.4019   -6.1262 H         1     PTX    0.0000
     75 H           4.9684    6.0324   -3.7129 H         1     PTX    0.0000
     76 H           5.6645    3.9559   -2.7609 H         1     PTX    0.0000
     77 H           0.5176   -1.3795   -0.7755 H         1     PTX    0.0000
     78 H          -0.9675    0.7779   -2.0433 H         1     PTX    0.0000
     79 H           0.1870    2.1368   -1.6670 H         1     PTX    0.0000
     80 H           0.7711    0.5942   -2.2704 H         1     PTX    0.0000
     81 H          -1.3041    2.8846    1.5029 H         1     PTX    0.0000
     82 H          -3.3307    3.2425   -2.5232 H         1     PTX    0.0000
     83 H          -3.2100    5.0134   -2.2049 H         1     PTX    0.0000
     84 H          -1.7155    4.0671   -2.5557 H         1     PTX    0.0000
     85 H          -0.3280    0.6987    4.4994 H         1     PTX    0.0000
     86 H          -0.5689    2.2376    3.6348 H         1     PTX    0.0000
     87 H          -1.8293    1.0417    3.6882 H         1     PTX    0.0000
     88 H           1.7847    0.5935    3.5348 H         1     PTX    0.0000
     89 H           2.1419    0.7288    1.8167 H         1     PTX    0.0000
     90 H           1.4546    2.1102    2.6239 H         1     PTX    0.0000
     91 H          -1.4686   -1.2888    0.4430 H         1     PTX    0.0000
     92 H          -1.3413   -5.6576   -1.4357 H         1     PTX    0.0000
     93 H          -1.4780   -8.0202   -1.0720 H         1     PTX    0.0000
     94 H          -1.6967   -8.9287    1.1851 H         1     PTX    0.0000
     95 H          -1.7729   -7.4100    3.1001 H         1     PTX    0.0000
     96 H          -1.6347   -5.0402    2.7848 H         1     PTX    0.0000
     97 H          -2.5963   -0.4757    2.9637 H         1     PTX    0.0000
     98 H          -3.7028   -1.1960   -0.6793 H         1     PTX    0.0000
     99 H          -4.0908    0.5472   -0.9372 H         1     PTX    0.0000
    100 H          -2.4265    0.0135   -0.7702 H         1     PTX    0.0000
    101 H          -5.4864    1.1412    1.2326 H         1     PTX    0.0000
    102 H          -6.5606   -1.1253    1.0094 H         1     PTX    0.0000
    103 H          -5.0010    0.4076    3.6057 H         1     PTX    0.0000
    104 H          -6.5907   -0.1479    3.0090 H         1     PTX    0.0000
    105 H          -5.3500   -1.9332    4.2747 H         1     PTX    0.0000
    106 H          -1.2771   -4.1363    5.1454 H         1     PTX    0.0000
    107 H          -2.1262   -3.0526    6.3245 H         1     PTX    0.0000
    108 H          -2.4979   -4.8170    6.2816 H         1     PTX    0.0000
    109 H          -4.3176   -4.1769    2.1111 H         1     PTX    0.0000
    110 H          -4.3746   -2.9026    0.8092 H         1     PTX    0.0000
    111 H          -0.2091   -2.5801    3.2999 H         1     PTX    0.0000
    112 H           0.9762   -2.5611    1.0843 H         1     PTX    0.0000
    113 H           1.9483   -1.3574    1.8372 H         1     PTX    0.0000
@<TRIPOS>BOND
     1     1     2     2
     2     2     3     1
     3     2    21     1
     4     3     4     1
     5     3     5     1
     6     3    63     1
     7     4    64     1
     8     5     6     1
     9     5    12     1
    10     5    65     1
    11     6     7     1
    12     6    11     2
    13     7     8     2
    14     7    66     1
    15     8     9     1
    16     8    67     1
    17     9    10     2
    18     9    68     1
    19    10    11     1
    20    10    69     1
    21    11    70     1
    22    12    13     1
    23    12    71     1
    24    13    14     1
    25    13    20     2
    26    14    15     1
    27    14    19     2
    28    15    16     2
    29    15    72     1
    30    16    17     1
    31    16    73     1
    32    17    18     2
    33    17    74     1
    34    18    19     1
    35    18    75     1
    36    19    76     1
    37    21    22     1
    38    22    23     1
    39    22    62     1
    40    22    77     1
    41    23    24     1
    42    23    25     2
    43    24    78     1
    44    24    79     1
    45    24    80     1
    46    25    26     1
    47    25    33     1
    48    26    27     1
    49    26    31     1
    50    26    81     1
    51    27    28     1
    52    28    29     1
    53    28    30     2
    54    29    82     1
    55    29    83     1
    56    29    84     1
    57    31    32     2
    58    31    48     1
    59    33    34     1
    60    33    35     1
    61    33    36     1
    62    34    85     1
    63    34    86     1
    64    34    87     1
    65    35    88     1
    66    35    89     1
    67    35    90     1
    68    36    37     1
    69    36    61     1
    70    36    62     1
    71    37    38     1
    72    37    47     1
    73    37    91     1
    74    38    39     1
    75    39    40     1
    76    39    46     2
    77    40    41     1
    78    40    45     2
    79    41    42     2
    80    41    92     1
    81    42    43     1
    82    42    93     1
    83    43    44     2
    84    43    94     1
    85    44    45     1
    86    44    95     1
    87    45    96     1
    88    47    48     1
    89    47    54     1
    90    47    97     1
    91    48    49     1
    92    48    50     1
    93    49    98     1
    94    49    99     1
    95    49   100     1
    96    50    51     1
    97    50    52     1
    98    50   101     1
    99    51   102     1
   100    52    53     1
   101    52   103     1
   102    52   104     1
   103    53    54     1
   104    53    60     1
   105    53   105     1
   106    54    55     1
   107    54    59     1
   108    55    56     1
   109    56    57     1
   110    56    58     2
   111    57   106     1
   112    57   107     1
   113    57   108     1
   114    59    60     1
   115    59   109     1
   116    59   110     1
   117    61   111     1
   118    62   112     1
   119    62   113     1
