@<TRIPOS>MOLECULE
PTX 
141 147 0 0 0
SMALL
USER_CHARGES
#CGenFF output mol2 file
@<TRIPOS>ATOM
1	C1    -0.2970    10.7410     0.8790	C.3	1	PTX1    -0.2730
2	C2    -0.4540     9.2310     1.1020	C.3	1	PTX1    -0.1770
3	C3     0.8510     8.5870     1.5980	C.3	1	PTX1    -0.1810
4	C4     0.7000     7.0730     1.8160	C.3	1	PTX1    -0.1790
5	C5     2.0080     6.4300     2.3030	C.3	1	PTX1    -0.1800
6	C6     1.8640     4.9190     2.4940	C.3	1	PTX1     0.0360
7	C7     3.2410     2.9930     2.8420	C.3	1	PTX1     0.3910
8	C8     4.5830     2.6740     3.5020	C.3	1	PTX1    -0.2690
9	C9     2.1140     2.2760     3.5770	C.3	1	PTX1    -0.2690
10	O1     3.1030     4.4000     2.9120	O.3	1	PTX1    -0.4020
11	H1    -1.2500    11.1930     0.5190	H	1	PTX1     0.0900
12	H2    -0.0110    11.2590     1.8230	H	1	PTX1     0.0900
13	H3     0.4880    10.9550     0.1180	H	1	PTX1     0.0900
14	H4    -0.7670     8.7490     0.1440	H	1	PTX1     0.0900
15	H5    -1.2660     9.0510     1.8460	H	1	PTX1     0.0900
16	H6     1.1600     9.0700     2.5560	H	1	PTX1     0.0900
17	H7     1.6600     8.7750     0.8530	H	1	PTX1     0.0900
18	H8     0.3860     6.5930     0.8590	H	1	PTX1     0.0900
19	H9    -0.1060     6.8840     2.5640	H	1	PTX1     0.0900
20	H10     2.3210     6.8980     3.2660	H	1	PTX1     0.0900
21	H11     2.8150     6.6300     1.5570	H	1	PTX1     0.0900
22	H12     1.5490     4.4600     1.5300	H	1	PTX1     0.0900
23	H13     1.0940     4.7200     3.2730	H	1	PTX1     0.0900
24	H14     4.7990     1.5830     3.5320	H	1	PTX1     0.0900
25	H15     4.6040     3.0340     4.5560	H	1	PTX1     0.0900
26	H16     5.4270     3.1670     2.9660	H	1	PTX1     0.0900
27	H17     2.0410     2.6430     4.6260	H	1	PTX1     0.0900
28	H18     1.1150     2.4210     3.1140	H	1	PTX1     0.0900
29	H19     2.2870     1.1790     3.6420	H	1	PTX1     0.0900
30	N     4.1920    -0.1740    -0.6130	N.pl3	1	PTX1    -0.4040
31	C10     3.2340     1.3850     1.0370	C.3	1	PTX1     0.1830
32	C11     1.7830     0.9360     0.8030	C.2	1	PTX1     0.8500
33	C12     0.5040    -1.0970     0.6520	C.3	1	PTX1     0.2720
34	C13    -0.4250    -0.6080    -0.4760	C.3	1	PTX1    -0.2120
35	C14    -1.2410    -1.7600    -1.0900	C.3	1	PTX1     0.1860
36	C15    -2.3010    -2.2120    -0.0490	C.3	1	PTX1     0.1330
37	C16    -3.2760    -0.4640     1.3730	C.2	1	PTX1     0.4590
38	C17    -4.1500     0.5820     1.4940	C.2	1	PTX1     0.0860
39	C18    -4.2740     1.2800     2.6410	C.2	1	PTX1    -0.1100
40	C19    -5.1400     2.3010     2.7360	C.2	1	PTX1    -0.1140
41	C20    -5.9000     2.6440     1.6850	C.2	1	PTX1    -0.1150
42	C21    -5.7860     1.9590     0.5390	C.2	1	PTX1    -0.1140
43	C22    -4.9180     0.9390     0.4460	C.2	1	PTX1    -0.1100
44	C23    -3.0910    -3.5130    -0.3400	C.3	1	PTX1    -0.0740
45	C24    -2.6200    -4.7890     0.4500	C.3	1	PTX1     0.0810
46	C25    -2.1940    -4.5350     1.9160	C.3	1	PTX1    -0.2630
47	C26    -1.4040    -5.3940    -0.3210	C.2	1	PTX1     0.2970
48	C27     0.0740    -4.9620    -0.1190	C.3	1	PTX1     0.4320
49	C28     0.8630    -6.8250     1.1930	C.2	1	PTX1     0.8340
50	C29     1.3470    -7.1350     2.5960	C.3	1	PTX1    -0.3110
51	C30     0.2500    -3.4500    -0.2470	C.2	1	PTX1    -0.1130
52	C31     0.7240    -2.6150     0.7110	C.2	1	PTX1    -0.1530
53	C32     1.4030    -3.0450     1.9960	C.3	1	PTX1    -0.2650
54	C33    -0.2000    -2.8110    -1.5610	C.3	1	PTX1     0.0160
55	C34     1.0930    -2.2130    -2.2000	C.3	1	PTX1    -0.2690
56	C35    -0.6530    -3.7160    -2.7410	C.3	1	PTX1    -0.2690
57	C36    -3.7390    -5.8720     0.5030	C.3	1	PTX1     0.1660
58	C37    -4.7190    -5.8370    -0.6650	C.3	1	PTX1    -0.2010
59	C38    -5.4680    -4.5200    -0.7640	C.3	1	PTX1     0.0150
60	C39    -5.4770    -3.0590     0.6420	C.3	1	PTX1    -0.1060
61	C40    -4.5940    -3.2750    -0.5900	C.3	1	PTX1     0.3660
62	C41    -5.9420    -1.8640    -2.0820	C.2	1	PTX1     0.8850
63	C42    -5.6760    -0.9270    -3.2460	C.3	1	PTX1    -0.3130
64	C43     4.0970     1.2440    -0.2390	C.3	1	PTX1     0.1270
65	C44     4.6700    -0.7320    -1.7690	C.2	1	PTX1     0.3410
66	C45     5.2660    -0.0560    -2.7960	C.2	1	PTX1    -0.1370
67	C46     5.1560    -0.5320    -4.0540	C.2	1	PTX1    -0.0240
68	C47     5.7120     0.1010    -5.1000	C.2	1	PTX1    -0.1090
69	C48     6.4080     1.2300    -4.9110	C.2	1	PTX1    -0.1150
70	C49     6.5510     1.7070    -3.6660	C.2	1	PTX1    -0.1090
71	C50     5.9910     1.0660    -2.6280	C.2	1	PTX1    -0.0240
72	C51     3.5070     2.1060    -1.3430	C.2	1	PTX1    -0.0400
73	C52     2.5640     1.6410    -2.1820	C.2	1	PTX1    -0.1060
74	C53     2.0480     2.4150    -3.1490	C.2	1	PTX1    -0.1150
75	C54     2.4690     3.6810    -3.2900	C.2	1	PTX1    -0.1150
76	C55     3.4040     4.1630    -2.4590	C.2	1	PTX1    -0.1150
77	C56     3.9140     3.3800    -1.4960	C.2	1	PTX1    -0.1060
78	O2     3.3290     2.7290     1.4600	O.3	1	PTX1    -0.5060
79	O3     0.8250     1.6750     0.7570	O.co2	1	PTX1    -0.6230
80	O4     1.7400    -0.4210     0.7000	O.3	1	PTX1    -0.4320
81	O5    -1.9460    -1.2620    -2.1940	O.3	1	PTX1    -0.4600
82	O6    -3.1870    -1.1440     0.1770	O.3	1	PTX1    -0.3100
83	O7    -2.5800    -0.7930     2.3140	O.co2	1	PTX1    -0.4960
84	O8    -1.6150    -6.2350    -1.1710	O.2	1	PTX1    -0.5150
85	O9     0.5780    -5.4970     1.0920	O.3	1	PTX1    -0.4270
86	O10     0.7440    -7.6400     0.3070	O.co2	1	PTX1    -0.6250
87	O11    -4.4870    -5.7770     1.6970	O.3	1	PTX1    -0.6420
88	O12    -6.2260    -4.2360     0.3900	O.3	1	PTX1    -0.3430
89	O13    -4.7590    -2.3780    -1.6490	O.3	1	PTX1    -0.4220
90	O14    -7.0430    -2.0920    -1.6380	O.co2	1	PTX1    -0.6170
91	O15     4.3700    -1.8980    -1.8910	O.2	1	PTX1    -0.4580
92	H20     3.6800     0.7250     1.8160	H	1	PTX1     0.0900
93	H21    -0.0140    -0.8620     1.6160	H	1	PTX1     0.0900
94	H22    -1.1110     0.1880    -0.1100	H	1	PTX1     0.0900
95	H23     0.1440    -0.0860    -1.2750	H	1	PTX1     0.0900
96	H24    -2.5580    -0.5850    -1.8890	H	1	PTX1     0.2920
97	H25    -1.7510    -2.3940     0.8850	H	1	PTX1     0.0900
98	H26    -3.6780     1.0450     3.5390	H	1	PTX1     0.1150
99	H27    -5.2310     2.8620     3.6810	H	1	PTX1     0.1150
100	H28    -6.6120     3.4830     1.7640	H	1	PTX1     0.1150
101	H29    -6.4080     2.2360    -0.3300	H	1	PTX1     0.1150
102	H30    -4.8670     0.4120    -0.5200	H	1	PTX1     0.1150
103	H31    -2.8550    -3.7630    -1.3950	H	1	PTX1     0.0900
104	H32    -2.9520    -3.9480     2.4790	H	1	PTX1     0.0900
105	H33    -2.0220    -5.4930     2.4580	H	1	PTX1     0.0900
106	H34    -1.2520    -3.9720     2.0320	H	1	PTX1     0.0900
107	H35     0.6990    -5.3840    -0.9420	H	1	PTX1     0.0900
108	H36     0.5630    -6.8730     3.3420	H	1	PTX1     0.0900
109	H37     1.5800    -8.2180     2.7030	H	1	PTX1     0.0900
110	H38     2.2720    -6.5570     2.8220	H	1	PTX1     0.0900
111	H39     0.6800    -3.4060     2.7580	H	1	PTX1     0.0900
112	H40     2.1890    -3.8090     1.8100	H	1	PTX1     0.0900
113	H41     1.9600    -2.2100     2.4740	H	1	PTX1     0.0900
114	H42     0.8640    -1.5620    -3.0750	H	1	PTX1     0.0900
115	H43     1.7300    -1.6230    -1.5150	H	1	PTX1     0.0900
116	H44     1.7850    -3.0110    -2.5530	H	1	PTX1     0.0900
117	H45    -0.8380    -3.1100    -3.6570	H	1	PTX1     0.0900
118	H46     0.1190    -4.4700    -3.0150	H	1	PTX1     0.0900
119	H47    -1.5780    -4.2980    -2.6240	H	1	PTX1     0.0900
120	H48    -3.2800    -6.8890     0.5600	H	1	PTX1     0.0900
121	H49    -5.4160    -5.9450     1.5280	H	1	PTX1     0.4000
122	H50    -4.1810    -6.0030    -1.6270	H	1	PTX1     0.0900
123	H51    -5.4560    -6.6690    -0.5690	H	1	PTX1     0.0900
124	H52    -6.1360    -4.5050    -1.6530	H	1	PTX1     0.0900
125	H53    -6.1260    -2.1610     0.6460	H	1	PTX1     0.0900
126	H54    -4.9350    -3.1510     1.6060	H	1	PTX1     0.0900
127	H55    -4.9400    -0.1420    -2.9610	H	1	PTX1     0.0900
128	H56    -5.2770    -1.4980    -4.1150	H	1	PTX1     0.0900
129	H57    -6.6130    -0.4180    -3.5660	H	1	PTX1     0.0900
130	H58     5.1170     1.5840     0.0600	H	1	PTX1     0.0900
131	H59     3.7510    -0.8550     0.0060	H	1	PTX1     0.2740
132	H60     4.5840    -1.4470    -4.2830	H	1	PTX1     0.1150
133	H61     5.5930    -0.3030    -6.1190	H	1	PTX1     0.1150
134	H62     6.8690     1.7520    -5.7650	H	1	PTX1     0.1150
135	H63     7.1460     2.6210    -3.4970	H	1	PTX1     0.1150
136	H64     6.1990     1.4870    -1.6370	H	1	PTX1     0.1150
137	H65     2.1990     0.6080    -2.0890	H	1	PTX1     0.1150
138	H66     1.2770     2.0110    -3.8260	H	1	PTX1     0.1150
139	H67     2.0470     4.3210    -4.0830	H	1	PTX1     0.1150
140	H68     3.7530     5.2030    -2.5670	H	1	PTX1     0.1150
141	H69     4.6810     3.7970    -0.8220	H	1	PTX1     0.1150
@<TRIPOS>BOND
1	1	2	1
2	1	11	1
3	1	12	1
4	1	13	1
5	2	3	1
6	2	14	1
7	2	15	1
8	3	4	1
9	3	16	1
10	3	17	1
11	4	5	1
12	4	18	1
13	4	19	1
14	5	6	1
15	5	20	1
16	5	21	1
17	6	10	1
18	6	22	1
19	6	23	1
20	7	8	1
21	7	9	1
22	7	78	1
23	8	24	1
24	8	25	1
25	8	26	1
26	9	27	1
27	9	28	1
28	9	29	1
29	7	10	1
30	30	65	1
31	30	131	1
32	31	32	1
33	31	64	1
34	31	92	1
35	32	79	2
36	32	80	1
37	33	34	1
38	33	52	1
39	33	93	1
40	34	35	1
41	34	94	1
42	34	95	1
43	35	36	1
44	35	54	1
45	35	81	1
46	36	44	1
47	36	82	1
48	36	97	1
49	37	38	1
50	37	83	2
51	38	39	1
52	38	43	2
53	39	40	2
54	39	98	1
55	40	41	1
56	40	99	1
57	41	42	2
58	41	100	1
59	42	43	1
60	42	101	1
61	43	102	1
62	44	45	1
63	44	61	1
64	44	103	1
65	45	46	1
66	45	47	1
67	45	57	1
68	46	104	1
69	46	105	1
70	46	106	1
71	47	48	1
72	47	84	2
73	48	51	1
74	48	85	1
75	48	107	1
76	49	50	1
77	49	86	2
78	50	108	1
79	50	109	1
80	50	110	1
81	51	52	2
82	51	54	1
83	52	53	1
84	53	111	1
85	53	112	1
86	53	113	1
87	54	55	1
88	54	56	1
89	55	114	1
90	55	115	1
91	55	116	1
92	56	117	1
93	56	118	1
94	56	119	1
95	57	58	1
96	57	87	1
97	57	120	1
98	58	59	1
99	58	122	1
100	58	123	1
101	59	61	1
102	59	88	1
103	59	124	1
104	60	61	1
105	60	125	1
106	60	126	1
107	61	89	1
108	62	63	1
109	62	90	2
110	63	127	1
111	63	128	1
112	63	129	1
113	30	64	1
114	64	72	1
115	64	130	1
116	65	66	1
117	65	91	2
118	66	67	1
119	66	71	2
120	67	68	2
121	67	132	1
122	68	69	1
123	68	133	1
124	69	70	2
125	69	134	1
126	70	71	1
127	70	135	1
128	71	136	1
129	72	73	1
130	72	77	2
131	73	74	2
132	73	137	1
133	74	75	1
134	74	138	1
135	75	76	2
136	75	139	1
137	76	77	1
138	76	140	1
139	77	141	1
140	31	78	1
141	33	80	1
142	81	96	1
143	37	82	1
144	49	85	1
145	87	121	1
146	60	88	1
147	62	89	1
