@<TRIPOS>MOLECULE
SN3
43 47 1 0 0
SMALL
USER_CHARGES


@<TRIPOS>ATOM
      1 C           4.4343   -2.8236    1.8291 C.3       1     SN3    0.0000
      2 C           3.4012   -1.7123    1.5941 C.3       1     SN3    0.0000
      3 C           3.1771   -1.3521    0.1202 C.3       1     SN3    0.0000
      4 O           2.7127   -2.5176   -0.5563 O.3       1     SN3    0.0000
      5 C           4.4909   -0.9861   -0.5659 C.2       1     SN3    0.0000
      6 O           5.1279   -1.8571   -1.1212 O.2       1     SN3    0.0000
      7 O           4.8556    0.3206   -0.5454 O.3       1     SN3    0.0000
      8 C           4.0773    1.2739    0.1430 C.3       1     SN3    0.0000
      9 C           2.5947    1.0317    0.0191 C.ar      1     SN3    0.0000
     10 C           2.1551   -0.2414    0.0021 C.ar      1     SN3    0.0000
     11 C           0.8352   -0.5014   -0.0742 C.ar      1     SN3    0.0000
     12 C          -0.0206    0.5269   -0.1504 C.ar      1     SN3    0.0000
     13 C          -1.3605    0.4983   -0.2399 C.ar      1     SN3    0.0000
     14 N          -2.1447   -0.4895   -0.2770 N.ar      1     SN3    0.0000
     15 C          -3.3943   -0.2768   -0.3654 C.ar      1     SN3    0.0000
     16 C          -4.2094   -1.3462   -0.4040 C.ar      1     SN3    0.0000
     17 C          -5.5364   -1.1844   -0.4971 C.ar      1     SN3    0.0000
     18 C          -6.0512    0.0514   -0.5519 C.ar      1     SN3    0.0000
     19 C          -5.2643    1.1405   -0.5152 C.ar      1     SN3    0.0000
     20 O          -5.8325    2.3769   -0.5736 O.3       1     SN3    0.0000
     21 C          -3.9297    0.9649   -0.4214 C.ar      1     SN3    0.0000
     22 C          -3.0994    2.0247   -0.3813 C.ar      1     SN3    0.0000
     23 C          -1.7928    1.7621   -0.2887 C.ar      1     SN3    0.0000
     24 C          -0.6223    2.6897   -0.2228 C.3       1     SN3    0.0000
     25 N           0.4689    1.6988   -0.1336 N.ar      1     SN3    0.0000
     26 C           1.6809    2.0423   -0.0482 C.ar      1     SN3    0.0000
     27 O           2.0162    3.2083   -0.0197 O.2       1     SN3    0.0000
     28 H           4.5000   -3.0798    2.9118 H         1     SN3    0.0000
     29 H           4.1646   -3.7552    1.2822 H         1     SN3    0.0000
     30 H           5.4532   -2.5134    1.5051 H         1     SN3    0.0000
     31 H           3.7228   -0.8074    2.1614 H         1     SN3    0.0000
     32 H           2.4275   -2.0336    2.0372 H         1     SN3    0.0000
     33 H           3.4693   -2.9844   -0.9248 H         1     SN3    0.0000
     34 H           4.3599    2.2576   -0.2968 H         1     SN3    0.0000
     35 H           4.3777    1.2905    1.2147 H         1     SN3    0.0000
     36 H           0.4551   -1.5345   -0.0683 H         1     SN3    0.0000
     37 H          -3.7988   -2.3699   -0.3598 H         1     SN3    0.0000
     38 H          -6.2015   -2.0636   -0.5287 H         1     SN3    0.0000
     39 H          -7.1445    0.1760   -0.6286 H         1     SN3    0.0000
     40 H          -6.7965    2.2844   -0.6401 H         1     SN3    0.0000
     41 H          -3.4388    3.0707   -0.4204 H         1     SN3    0.0000
     42 H          -0.6794    3.3303    0.6873 H         1     SN3    0.0000
     43 H          -0.5524    3.3030   -1.1506 H         1     SN3    0.0000
@<TRIPOS>BOND
     1     1     2     1
     2     1    28     1
     3     1    29     1
     4     1    30     1
     5     2     3     1
     6     2    31     1
     7     2    32     1
     8     3     4     1
     9     3     5     1
    10     3    10     1
    11     4    33     1
    12     5     6     2
    13     5     7     1
    14     7     8     1
    15     8     9     1
    16     8    34     1
    17     8    35     1
    18     9    10     2
    19     9    26     1
    20    10    11     1
    21    11    12     2
    22    11    36     1
    23    12    13     1
    24    12    25     1
    25    13    14     2
    26    13    23     1
    27    14    15     1
    28    15    16     2
    29    15    21     1
    30    16    17     1
    31    16    37     1
    32    17    18     2
    33    17    38     1
    34    18    19     1
    35    18    39     1
    36    19    20     1
    37    19    21     2
    38    20    40     1
    39    21    22     1
    40    22    23     2
    41    22    41     1
    42    23    24     1
    43    24    25     1
    44    24    42     1
    45    24    43     1
    46    25    26     1
    47    26    27     2
