@<TRIPOS>MOLECULE
CBZ 
180 185 0 0 0
SMALL
USER_CHARGES
#CGenFF output mol2 file
@<TRIPOS>ATOM
1	C1    -2.1640    12.3610    13.9440	C.3	1	CBZ1    -0.2730
2	C2    -0.9210    11.8350    13.2140	C.3	1	CBZ1    -0.1770
3	C3    -1.2880    10.8250    12.1150	C.3	1	CBZ1    -0.1810
4	C4    -0.0470    10.2970    11.3780	C.3	1	CBZ1    -0.1790
5	C5    -0.4180     9.2900    10.2770	C.3	1	CBZ1    -0.1800
6	C6     0.8200     8.7640     9.5330	C.3	1	CBZ1    -0.1800
7	C7     0.4400     7.7660     8.4270	C.3	1	CBZ1    -0.1800
8	C8     1.6700     7.2430     7.6670	C.3	1	CBZ1    -0.1800
9	C9     1.2740     6.2600     6.5530	C.3	1	CBZ1    -0.1800
10	C10     2.4920     5.7420     5.7700	C.3	1	CBZ1    -0.1800
11	C11     2.0730     4.7810     4.6450	C.3	1	CBZ1    -0.1800
12	C12     3.2720     4.2690     3.8310	C.3	1	CBZ1    -0.1800
13	C13     2.8210     3.3380     2.6930	C.3	1	CBZ1    -0.1800
14	C14     3.9950     2.8290     1.8410	C.3	1	CBZ1    -0.1800
15	C15     3.5020     1.9380     0.6890	C.3	1	CBZ1    -0.1800
16	C16     4.6450     1.4300    -0.2050	C.3	1	CBZ1    -0.1800
17	C17     4.1020     0.5850    -1.3690	C.3	1	CBZ1    -0.1800
18	C18     5.2030     0.0730    -2.2990	C.3	1	CBZ1     0.0360
19	C19     5.4360    -1.3610    -4.2070	C.3	1	CBZ1     0.3910
20	C20     4.5100    -1.8920    -5.3020	C.3	1	CBZ1    -0.2690
21	C21     6.5360    -0.4870    -4.7990	C.3	1	CBZ1    -0.2690
22	O1     4.5830    -0.6360    -3.3430	O.3	1	CBZ1    -0.4020
23	H1    -1.8830    13.0920    14.7370	H	1	CBZ1     0.0900
24	H2    -2.8560    12.8770    13.2390	H	1	CBZ1     0.0900
25	H3    -2.7250    11.5320    14.4310	H	1	CBZ1     0.0900
26	H4    -0.2380    11.3520    13.9530	H	1	CBZ1     0.0900
27	H5    -0.3690    12.6950    12.7620	H	1	CBZ1     0.0900
28	H6    -1.9740    11.3130    11.3810	H	1	CBZ1     0.0900
29	H7    -1.8410     9.9700    12.5700	H	1	CBZ1     0.0900
30	H8     0.6380     9.8080    12.1110	H	1	CBZ1     0.0900
31	H9     0.5060    11.1540    10.9250	H	1	CBZ1     0.0900
32	H10    -1.1070     9.7800     9.5480	H	1	CBZ1     0.0900
33	H11    -0.9690     8.4320    10.7320	H	1	CBZ1     0.0900
34	H12     1.5070     8.2680    10.2590	H	1	CBZ1     0.0900
35	H13     1.3720     9.6220     9.0820	H	1	CBZ1     0.0900
36	H14    -0.2540     8.2620     7.7070	H	1	CBZ1     0.0900
37	H15    -0.1090     6.9050     8.8790	H	1	CBZ1     0.0900
38	H16     2.3610     6.7360     8.3820	H	1	CBZ1     0.0900
39	H17     2.2220     8.1040     7.2210	H	1	CBZ1     0.0900
40	H18     0.5740     6.7680     5.8490	H	1	CBZ1     0.0900
41	H19     0.7280     5.3960     7.0000	H	1	CBZ1     0.0900
42	H20     3.1890     5.2180     6.4670	H	1	CBZ1     0.0900
43	H21     3.0440     6.6070     5.3310	H	1	CBZ1     0.0900
44	H22     1.3640     5.3070     3.9620	H	1	CBZ1     0.0900
45	H23     1.5280     3.9130     5.0860	H	1	CBZ1     0.0900
46	H24     3.9750     3.7220     4.5030	H	1	CBZ1     0.0900
47	H25     3.8260     5.1370     3.4010	H	1	CBZ1     0.0900
48	H26     2.1040     3.8880     2.0370	H	1	CBZ1     0.0900
49	H27     2.2740     2.4660     3.1250	H	1	CBZ1     0.0900
50	H28     4.7030     2.2540     2.4830	H	1	CBZ1     0.0900
51	H29     4.5530     3.7000     1.4210	H	1	CBZ1     0.0900
52	H30     2.7810     2.5170     0.0650	H	1	CBZ1     0.0900
53	H31     2.9490     1.0640     1.1110	H	1	CBZ1     0.0900
54	H32     5.3550     0.8210     0.4020	H	1	CBZ1     0.0900
55	H33     5.2120     2.3000    -0.6130	H	1	CBZ1     0.0900
56	H34     3.3810     1.1980    -1.9620	H	1	CBZ1     0.0900
57	H35     3.5360    -0.2860    -0.9590	H	1	CBZ1     0.0900
58	H36     5.8940    -0.5890    -1.7310	H	1	CBZ1     0.0900
59	H37     5.7650     0.9400    -2.7150	H	1	CBZ1     0.0900
60	H38     5.0340    -2.4540    -6.1050	H	1	CBZ1     0.0900
61	H39     3.9920    -1.0480    -5.8130	H	1	CBZ1     0.0900
62	H40     3.7160    -2.5490    -4.8800	H	1	CBZ1     0.0900
63	H41     6.1090     0.4360    -5.2510	H	1	CBZ1     0.0900
64	H42     7.2950    -0.1830    -4.0440	H	1	CBZ1     0.0900
65	H43     7.0890    -1.0150    -5.6070	H	1	CBZ1     0.0900
66	N     6.4470    -5.8820    -4.4740	N.pl3	1	CBZ1    -0.5470
67	C22     6.5960    -3.4700    -4.0390	C.3	1	CBZ1     0.1830
68	C23     8.0280    -3.6640    -3.5140	C.2	1	CBZ1     0.8500
69	C24    10.0290    -2.3250    -3.1220	C.3	1	CBZ1     0.2720
70	C25    10.2060    -1.5810    -1.7840	C.3	1	CBZ1    -0.2120
71	C26    11.5090    -1.9970    -1.0690	C.3	1	CBZ1     0.1860
72	C27    12.7040    -1.3800    -1.8440	C.3	1	CBZ1     0.1330
73	C28    12.4060     0.8660    -2.7920	C.2	1	CBZ1     0.4590
74	C29    12.4070     2.2200    -2.5910	C.2	1	CBZ1     0.0860
75	C30    12.2080     3.0920    -3.5990	C.2	1	CBZ1    -0.1100
76	C31    12.2160     4.4170    -3.3760	C.2	1	CBZ1    -0.1140
77	C32    12.4240     4.8940    -2.1410	C.2	1	CBZ1    -0.1150
78	C33    12.6220     4.0380    -1.1280	C.2	1	CBZ1    -0.1140
79	C34    12.6110     2.7150    -1.3540	C.2	1	CBZ1    -0.1100
80	C35    14.1300    -1.8690    -1.4770	C.3	1	CBZ1    -0.0740
81	C36    14.7960    -2.8920    -2.4720	C.3	1	CBZ1     0.0880
82	C37    14.4650    -2.6530    -3.9640	C.3	1	CBZ1    -0.2630
83	C38    14.2770    -4.3210    -2.1090	C.2	1	CBZ1     0.3060
84	C39    12.9320    -4.9340    -2.5790	C.3	1	CBZ1     0.3620
85	C40    14.0090    -6.4900    -4.0150	C.3	1	CBZ1    -0.0880
86	C41    11.7300    -4.0160    -2.3750	C.2	1	CBZ1    -0.1130
87	C42    10.9380    -3.5280    -3.3610	C.2	1	CBZ1    -0.1530
88	C43    10.9510    -3.9660    -4.8140	C.3	1	CBZ1    -0.2650
89	C44    11.4580    -3.5450    -0.9420	C.3	1	CBZ1     0.0160
90	C45    10.0570    -4.0880    -0.5120	C.3	1	CBZ1    -0.2690
91	C46    12.2970    -4.1690     0.2130	C.3	1	CBZ1    -0.2690
92	C47    16.3600    -2.8950    -2.3630	C.3	1	CBZ1     0.1180
93	C48    18.3270    -2.1340    -3.4710	C.3	1	CBZ1    -0.1010
94	C49    16.8510    -2.5260    -0.9600	C.3	1	CBZ1    -0.2120
95	C50    16.4440    -1.1360    -0.5020	C.3	1	CBZ1     0.0200
96	C51    15.6210     0.2760    -1.6990	C.3	1	CBZ1    -0.1060
97	C52    14.9840    -0.7820    -0.7940	C.3	1	CBZ1     0.3660
98	C53    14.7310     0.7080     1.1450	C.2	1	CBZ1     0.8850
99	C54    13.7300     0.8790     2.2730	C.3	1	CBZ1    -0.3130
100	C55     5.7310    -4.7400    -3.8970	C.3	1	CBZ1     0.1360
101	C56     6.3960    -6.2100    -5.8000	C.2	1	CBZ1     0.6380
102	C57     7.2660    -7.4120    -6.1810	C.3	1	CBZ1    -0.0540
103	C58     7.0930    -7.7540    -7.6750	C.3	1	CBZ1    -0.2730
104	C59     8.7410    -7.0590    -5.9110	C.3	1	CBZ1    -0.2730
105	C60     6.8470    -8.6250    -5.3300	C.3	1	CBZ1    -0.2730
106	C61     5.3710    -5.0350    -2.4470	C.2	1	CBZ1    -0.0400
107	C62     6.0680    -5.8950    -1.6800	C.2	1	CBZ1    -0.1060
108	C63     5.7280    -6.1230    -0.4010	C.2	1	CBZ1    -0.1150
109	C64     4.6740    -5.4970     0.1400	C.2	1	CBZ1    -0.1150
110	C65     3.9600    -4.6460    -0.6100	C.2	1	CBZ1    -0.1150
111	C66     4.3070    -4.4250    -1.8870	C.2	1	CBZ1    -0.1060
112	O2     5.9600    -2.3870    -3.3950	O.3	1	CBZ1    -0.5060
113	O3     8.5010    -4.7440    -3.2440	O.co2	1	CBZ1    -0.6230
114	O4     8.6650    -2.4610    -3.4540	O.3	1	CBZ1    -0.4320
115	O5    11.5180    -1.4200     0.2090	O.3	1	CBZ1    -0.4600
116	O6    12.6230     0.0180    -1.7280	O.3	1	CBZ1    -0.3100
117	O7    12.2200     0.4120    -3.9040	O.co2	1	CBZ1    -0.4960
118	O8    14.9480    -5.0370    -1.3940	O.2	1	CBZ1    -0.5150
119	O9    13.0570    -5.4560    -3.8920	O.3	1	CBZ1    -0.3770
120	O10    16.9210    -2.0690    -3.3530	O.3	1	CBZ1    -0.3670
121	O11    16.9330    -0.0990    -1.3200	O.3	1	CBZ1    -0.3430
122	O12    14.3290    -0.3220     0.3510	O.3	1	CBZ1    -0.4220
123	O13    15.7140     1.3980     1.0070	O.co2	1	CBZ1    -0.6170
124	O14     5.7310    -5.5850    -6.5880	O.2	1	CBZ1    -0.5110
125	H44     6.7580    -3.2570    -5.1180	H	1	CBZ1     0.0900
126	H45    10.4170    -1.6000    -3.8860	H	1	CBZ1     0.0900
127	H46    10.1610    -0.4800    -1.9490	H	1	CBZ1     0.0900
128	H47     9.3310    -1.7340    -1.1150	H	1	CBZ1     0.0900
129	H48    11.5960    -0.4660     0.1160	H	1	CBZ1     0.2920
130	H49    12.5500    -1.6400    -2.9000	H	1	CBZ1     0.0900
131	H50    12.0330     2.7610    -4.6360	H	1	CBZ1     0.1150
132	H51    12.0530     5.1180    -4.2120	H	1	CBZ1     0.1150
133	H52    12.4320     5.9820    -1.9590	H	1	CBZ1     0.1150
134	H53    12.7920     4.4240    -0.1090	H	1	CBZ1     0.1150
135	H54    12.7770     2.0590    -0.4840	H	1	CBZ1     0.1150
136	H55    13.9930    -2.4710    -0.5560	H	1	CBZ1     0.0900
137	H56    14.6660    -1.6030    -4.2720	H	1	CBZ1     0.0900
138	H57    15.0460    -3.3350    -4.6260	H	1	CBZ1     0.0900
139	H58    13.4140    -2.8480    -4.2370	H	1	CBZ1     0.0900
140	H59    12.6950    -5.8110    -1.9290	H	1	CBZ1     0.0900
141	H60    13.9520    -6.8810    -5.0550	H	1	CBZ1     0.0900
142	H61    15.0370    -6.0990    -3.8500	H	1	CBZ1     0.0900
143	H62    13.7800    -7.3200    -3.3110	H	1	CBZ1     0.0900
144	H63    11.8000    -3.5340    -5.3840	H	1	CBZ1     0.0900
145	H64    10.9400    -5.0710    -4.9180	H	1	CBZ1     0.0900
146	H65    10.0340    -3.6380    -5.3520	H	1	CBZ1     0.0900
147	H66     9.7660    -3.7270     0.5000	H	1	CBZ1     0.0900
148	H67     9.2080    -3.8260    -1.1660	H	1	CBZ1     0.0900
149	H68    10.0360    -5.2020    -0.4950	H	1	CBZ1     0.0900
150	H69    11.9970    -3.7520     1.2010	H	1	CBZ1     0.0900
151	H70    12.1560    -5.2710     0.2850	H	1	CBZ1     0.0900
152	H71    13.3900    -4.0540     0.1920	H	1	CBZ1     0.0900
153	H72    16.7240    -3.9230    -2.6130	H	1	CBZ1     0.0900
154	H73    18.6130    -1.5730    -4.3890	H	1	CBZ1     0.0900
155	H74    18.8260    -1.6420    -2.6100	H	1	CBZ1     0.0900
156	H75    18.6670    -3.1870    -3.5820	H	1	CBZ1     0.0900
157	H76    16.4240    -3.2470    -0.2240	H	1	CBZ1     0.0900
158	H77    17.9530    -2.6470    -0.8610	H	1	CBZ1     0.0900
159	H78    16.7650    -0.9520     0.5480	H	1	CBZ1     0.0900
160	H79    15.4180     1.3380    -1.4520	H	1	CBZ1     0.0900
161	H80    15.4660     0.0890    -2.7820	H	1	CBZ1     0.0900
162	H81    12.7070     1.0510     1.8670	H	1	CBZ1     0.0900
163	H82    13.7150    -0.0310     2.9160	H	1	CBZ1     0.0900
164	H83    13.9970     1.7510     2.9120	H	1	CBZ1     0.0900
165	H84     4.7690    -4.6100    -4.4460	H	1	CBZ1     0.0900
166	H85     7.1340    -6.3390    -3.8750	H	1	CBZ1     0.2840
167	H86     7.7140    -8.6320    -7.9600	H	1	CBZ1     0.0900
168	H87     6.0350    -8.0070    -7.9160	H	1	CBZ1     0.0900
169	H88     7.4030    -6.9070    -8.3280	H	1	CBZ1     0.0900
170	H89     9.4170    -7.8830    -6.2350	H	1	CBZ1     0.0900
171	H90     8.9400    -6.8870    -4.8300	H	1	CBZ1     0.0900
172	H91     9.0410    -6.1390    -6.4630	H	1	CBZ1     0.0900
173	H92     5.7700    -8.8680    -5.4800	H	1	CBZ1     0.0900
174	H93     7.4380    -9.5280    -5.6020	H	1	CBZ1     0.0900
175	H94     7.0040    -8.4500    -4.2410	H	1	CBZ1     0.0900
176	H95     6.9390    -6.4400    -2.0710	H	1	CBZ1     0.1150
177	H96     6.3170    -6.8290     0.2090	H	1	CBZ1     0.1150
178	H97     4.3940    -5.6830     1.1900	H	1	CBZ1     0.1150
179	H98     3.0880    -4.1280    -0.1770	H	1	CBZ1     0.1150
180	H99     3.6990    -3.7210    -2.4790	H	1	CBZ1     0.1150
@<TRIPOS>BOND
1	1	2	1
2	1	23	1
3	1	24	1
4	1	25	1
5	2	3	1
6	2	26	1
7	2	27	1
8	3	4	1
9	3	28	1
10	3	29	1
11	4	5	1
12	4	30	1
13	4	31	1
14	5	6	1
15	5	32	1
16	5	33	1
17	6	7	1
18	6	34	1
19	6	35	1
20	7	8	1
21	7	36	1
22	7	37	1
23	8	9	1
24	8	38	1
25	8	39	1
26	9	10	1
27	9	40	1
28	9	41	1
29	10	11	1
30	10	42	1
31	10	43	1
32	11	12	1
33	11	44	1
34	11	45	1
35	12	13	1
36	12	46	1
37	12	47	1
38	13	14	1
39	13	48	1
40	13	49	1
41	14	15	1
42	14	50	1
43	14	51	1
44	15	16	1
45	15	52	1
46	15	53	1
47	16	17	1
48	16	54	1
49	16	55	1
50	17	18	1
51	17	56	1
52	17	57	1
53	18	22	1
54	18	58	1
55	18	59	1
56	19	20	1
57	19	21	1
58	19	112	1
59	20	60	1
60	20	61	1
61	20	62	1
62	21	63	1
63	21	64	1
64	21	65	1
65	19	22	1
66	66	101	1
67	66	166	1
68	67	68	1
69	67	100	1
70	67	125	1
71	68	113	2
72	68	114	1
73	69	70	1
74	69	87	1
75	69	126	1
76	70	71	1
77	70	127	1
78	70	128	1
79	71	72	1
80	71	89	1
81	71	115	1
82	72	80	1
83	72	116	1
84	72	130	1
85	73	74	1
86	73	117	2
87	74	75	1
88	74	79	2
89	75	76	2
90	75	131	1
91	76	77	1
92	76	132	1
93	77	78	2
94	77	133	1
95	78	79	1
96	78	134	1
97	79	135	1
98	80	81	1
99	80	97	1
100	80	136	1
101	81	82	1
102	81	83	1
103	81	92	1
104	82	137	1
105	82	138	1
106	82	139	1
107	83	84	1
108	83	118	2
109	84	86	1
110	84	119	1
111	84	140	1
112	85	141	1
113	85	142	1
114	85	143	1
115	86	87	2
116	86	89	1
117	87	88	1
118	88	144	1
119	88	145	1
120	88	146	1
121	89	90	1
122	89	91	1
123	90	147	1
124	90	148	1
125	90	149	1
126	91	150	1
127	91	151	1
128	91	152	1
129	92	94	1
130	92	120	1
131	92	153	1
132	93	154	1
133	93	155	1
134	93	156	1
135	94	95	1
136	94	157	1
137	94	158	1
138	95	97	1
139	95	121	1
140	95	159	1
141	96	97	1
142	96	160	1
143	96	161	1
144	97	122	1
145	98	99	1
146	98	123	2
147	99	162	1
148	99	163	1
149	99	164	1
150	66	100	1
151	100	106	1
152	100	165	1
153	101	102	1
154	101	124	2
155	102	103	1
156	102	104	1
157	102	105	1
158	103	167	1
159	103	168	1
160	103	169	1
161	104	170	1
162	104	171	1
163	104	172	1
164	105	173	1
165	105	174	1
166	105	175	1
167	106	107	1
168	106	111	2
169	107	108	2
170	107	176	1
171	108	109	1
172	108	177	1
173	109	110	2
174	109	178	1
175	110	111	1
176	110	179	1
177	111	180	1
178	67	112	1
179	69	114	1
180	115	129	1
181	73	116	1
182	85	119	1
183	93	120	1
184	96	121	1
185	98	122	1
