@<TRIPOS>MOLECULE
FUL 
152 155 0 0 0
SMALL
USER_CHARGES
#CGenFF output mol2 file
@<TRIPOS>ATOM
1	C1   -22.2750    -2.3990    -3.3870	C.3	1	FUL1    -0.2730
2	C2   -21.0190    -2.0120    -4.1780	C.3	1	FUL1    -0.1770
3	C3   -19.7320    -2.3830    -3.4250	C.3	1	FUL1    -0.1810
4	C4   -18.4700    -2.0010    -4.2150	C.3	1	FUL1    -0.1790
5	C5   -17.1840    -2.3650    -3.4550	C.3	1	FUL1    -0.1800
6	C6   -15.9200    -1.9910    -4.2460	C.3	1	FUL1    -0.1800
7	C7   -14.6370    -2.3420    -3.4740	C.3	1	FUL1    -0.1800
8	C8   -13.3690    -1.9760    -4.2620	C.3	1	FUL1    -0.1800
9	C9   -12.0920    -2.3060    -3.4720	C.3	1	FUL1    -0.1800
10	C10   -10.8160    -1.9510    -4.2540	C.3	1	FUL1    -0.1800
11	C11    -9.5480    -2.2520    -3.4380	C.3	1	FUL1    -0.1800
12	C12    -8.2640    -1.9080    -4.2100	C.3	1	FUL1    -0.1800
13	C13    -7.0080    -2.1710    -3.3630	C.3	1	FUL1    -0.1800
14	C14    -5.7110    -1.8380    -4.1200	C.3	1	FUL1    -0.1800
15	C15    -4.4710    -2.0550    -3.2380	C.3	1	FUL1    -0.1800
16	C16    -3.1620    -1.7350    -3.9770	C.3	1	FUL1    -0.1800
17	C17    -1.9420    -1.8990    -3.0560	C.3	1	FUL1    -0.1800
18	C18    -0.6250    -1.5930    -3.7720	C.3	1	FUL1     0.0360
19	C19     1.6980    -1.3130    -3.2830	C.3	1	FUL1     0.3830
20	C20     2.6470    -1.6280    -2.1260	C.3	1	FUL1    -0.2740
21	C21     2.1330    -2.0640    -4.5360	C.3	1	FUL1    -0.2740
22	O1     0.4190    -1.7160    -2.8370	O.3	1	FUL1    -0.4030
23	H1   -23.2000    -2.1230    -3.9450	H	1	FUL1     0.0900
24	H2   -22.3090    -3.4970    -3.1980	H	1	FUL1     0.0900
25	H3   -22.3060    -1.8800    -2.4020	H	1	FUL1     0.0900
26	H4   -21.0330    -0.9130    -4.3750	H	1	FUL1     0.0900
27	H5   -21.0350    -2.5280    -5.1680	H	1	FUL1     0.0900
28	H6   -19.7250    -3.4810    -3.2250	H	1	FUL1     0.0900
29	H7   -19.7210    -1.8640    -2.4370	H	1	FUL1     0.0900
30	H8   -18.4790    -0.9040    -4.4190	H	1	FUL1     0.0900
31	H9   -18.4780    -2.5240    -5.2010	H	1	FUL1     0.0900
32	H10   -17.1770    -3.4610    -3.2450	H	1	FUL1     0.0900
33	H11   -17.1750    -1.8370    -2.4720	H	1	FUL1     0.0900
34	H12   -15.9310    -0.8970    -4.4640	H	1	FUL1     0.0900
35	H13   -15.9220    -2.5280    -5.2240	H	1	FUL1     0.0900
36	H14   -14.6290    -3.4340    -3.2470	H	1	FUL1     0.0900
37	H15   -14.6350    -1.7990    -2.4980	H	1	FUL1     0.0900
38	H16   -13.3830    -0.8870    -4.5020	H	1	FUL1     0.0900
39	H17   -13.3610    -2.5320    -5.2300	H	1	FUL1     0.0900
40	H18   -12.0810    -3.3940    -3.2230	H	1	FUL1     0.0900
41	H19   -12.1020    -1.7440    -2.5080	H	1	FUL1     0.0900
42	H20   -10.8350    -0.8680    -4.5210	H	1	FUL1     0.0900
43	H21   -10.7920    -2.5300    -5.2070	H	1	FUL1     0.0900
44	H22    -9.5340    -3.3330    -3.1620	H	1	FUL1     0.0900
45	H23    -9.5760    -1.6650    -2.4890	H	1	FUL1     0.0900
46	H24    -8.2880    -0.8330    -4.5100	H	1	FUL1     0.0900
47	H25    -8.2170    -2.5150    -5.1450	H	1	FUL1     0.0900
48	H26    -6.9880    -3.2430    -3.0530	H	1	FUL1     0.0900
49	H27    -7.0590    -1.5560    -2.4340	H	1	FUL1     0.0900
50	H28    -5.7420    -0.7750    -4.4580	H	1	FUL1     0.0900
51	H29    -5.6380    -2.4780    -5.0310	H	1	FUL1     0.0900
52	H30    -4.4470    -3.1140    -2.8870	H	1	FUL1     0.0900
53	H31    -4.5500    -1.4070    -2.3330	H	1	FUL1     0.0900
54	H32    -3.1980    -0.6870    -4.3590	H	1	FUL1     0.0900
55	H33    -3.0580    -2.4100    -4.8590	H	1	FUL1     0.0900
56	H34    -1.9120    -2.9420    -2.6590	H	1	FUL1     0.0900
57	H35    -2.0500    -1.2140    -2.1810	H	1	FUL1     0.0900
58	H36    -0.6550    -0.5580    -4.1810	H	1	FUL1     0.0900
59	H37    -0.4810    -2.3220    -4.6010	H	1	FUL1     0.0900
60	H38     3.7060    -1.3750    -2.3580	H	1	FUL1     0.0900
61	H39     2.6280    -2.7160    -1.8890	H	1	FUL1     0.0900
62	H40     2.3570    -1.0870    -1.1970	H	1	FUL1     0.0900
63	H41     1.9720    -3.1600    -4.4210	H	1	FUL1     0.0900
64	H42     1.5910    -1.7250    -5.4470	H	1	FUL1     0.0900
65	H43     3.2170    -1.9210    -4.7380	H	1	FUL1     0.0900
66	C22     2.7460     0.8120    -3.3740	C.2	1	FUL1     0.2460
67	C23     3.6480     0.9480    -4.3590	C.2	1	FUL1    -0.1160
68	C24     4.7400     1.7110    -4.2070	C.2	1	FUL1    -0.1060
69	C25     4.9590     2.4290    -3.0900	C.2	1	FUL1     0.0070
70	C26     4.0290     2.3570    -2.1150	C.2	1	FUL1    -0.0030
71	C27     2.9450     1.5800    -2.2880	C.2	1	FUL1    -0.1190
72	C28     4.1460     3.1300    -0.8180	C.3	1	FUL1    -0.1900
73	C29     5.5850     3.5630    -0.4960	C.3	1	FUL1    -0.0890
74	C30     6.4540     2.3940     0.0090	C.3	1	FUL1    -0.1970
75	C31     6.1170     1.9530     1.4450	C.3	1	FUL1    -0.1920
76	C32     7.0640     0.8530     1.9530	C.3	1	FUL1    -0.1570
77	C33     6.7280     0.4360     3.3950	C.3	1	FUL1    -0.1800
78	C34     7.6790    -0.6510     3.9220	C.3	1	FUL1    -0.1800
79	C35     7.3490    -1.0390     5.3730	C.3	1	FUL1    -0.1800
80	C36     8.3020    -2.1160     5.9170	C.3	1	FUL1    -0.1800
81	C37     7.9800    -2.4810     7.3760	C.3	1	FUL1    -0.1890
82	C38     8.9450    -3.5420     7.9250	C.3	1	FUL1    -0.0590
83	C39     8.7050    -2.6840    10.6680	C.3	1	FUL1    -0.0590
84	C40     8.3760    -3.0250    12.1320	C.3	1	FUL1    -0.1810
85	C41     8.4910    -1.7900    13.0450	C.3	1	FUL1    -0.0660
86	C42     8.1630    -2.0690    14.4810	C.3	1	FUL1     0.3400
87	C43     8.2810    -0.8590    15.3530	C.3	1	FUL1     0.3320
88	C44     6.1110     4.2630    -1.7620	C.3	1	FUL1    -0.0940
89	C45     6.2190     3.2750    -2.9440	C.3	1	FUL1    -0.0850
90	C46     6.6700     4.0220    -4.2210	C.3	1	FUL1    -0.1800
91	C47     7.9520     4.8590    -4.0200	C.3	1	FUL1    -0.1890
92	C48     7.8200     5.8300    -2.8350	C.3	1	FUL1     0.0010
93	C49     6.8270     6.9610    -3.1850	C.3	1	FUL1    -0.2710
94	C50     9.1370     6.4330    -2.3240	C.3	1	FUL1     0.1530
95	C51     8.8590     6.8080    -0.8610	C.3	1	FUL1    -0.1790
96	C52     7.6450     5.9610    -0.4240	C.3	1	FUL1    -0.1800
97	C53     7.4480     4.9910    -1.5940	C.3	1	FUL1    -0.0960
98	O2     1.6020     0.0740    -3.5210	O.3	1	FUL1    -0.4260
99	O3     9.1700    -5.3310    10.0180	O.2	1	FUL1    -0.5490
100	O4     9.5540     7.5450    -3.0740	O.3	1	FUL1    -0.6510
101	F1     8.9610    -3.0120    14.9510	F	1	FUL1    -0.1870
102	F2     6.9320    -2.5420    14.5740	F	1	FUL1    -0.1870
103	F3     7.4850     0.0920    14.9480	F	1	FUL1    -0.1400
104	F4     7.9920    -1.1060    16.6030	F	1	FUL1    -0.1400
105	F5     9.4900    -0.3690    15.3180	F	1	FUL1    -0.1400
106	S     8.5670    -4.0810     9.5770	S.O	1	FUL1     0.3250
107	H44     3.4990     0.4090    -5.3090	H	1	FUL1     0.1150
108	H45     5.4590     1.7320    -5.0400	H	1	FUL1     0.1150
109	H46     2.1770     1.5540    -1.4960	H	1	FUL1     0.1150
110	H47     3.4930     4.0300    -0.9150	H	1	FUL1     0.0900
111	H48     3.7290     2.5420     0.0300	H	1	FUL1     0.0900
112	H49     5.5400     4.3230     0.3250	H	1	FUL1     0.0900
113	H50     6.3600     1.5180    -0.6730	H	1	FUL1     0.0900
114	H51     7.5260     2.7010     0.0030	H	1	FUL1     0.0900
115	H52     6.1850     2.8340     2.1270	H	1	FUL1     0.0900
116	H53     5.0710     1.5720     1.4960	H	1	FUL1     0.0900
117	H54     6.9930    -0.0370     1.2830	H	1	FUL1     0.0900
118	H55     8.1170     1.2200     1.9120	H	1	FUL1     0.0900
119	H56     6.7900     1.3310     4.0590	H	1	FUL1     0.0900
120	H57     5.6780     0.0610     3.4370	H	1	FUL1     0.0900
121	H58     7.6090    -1.5540     3.2700	H	1	FUL1     0.0900
122	H59     8.7300    -0.2800     3.8690	H	1	FUL1     0.0900
123	H60     7.4130    -0.1320     6.0200	H	1	FUL1     0.0900
124	H61     6.2990    -1.4140     5.4270	H	1	FUL1     0.0900
125	H62     8.2310    -3.0290     5.2790	H	1	FUL1     0.0900
126	H63     9.3530    -1.7460     5.8530	H	1	FUL1     0.0900
127	H64     8.0400    -1.5550     7.9950	H	1	FUL1     0.0900
128	H65     6.9310    -2.8590     7.4350	H	1	FUL1     0.0900
129	H66     8.9140    -4.4410     7.2650	H	1	FUL1     0.0900
130	H67     9.9900    -3.1540     7.9120	H	1	FUL1     0.0900
131	H68     8.0100    -1.8880    10.3140	H	1	FUL1     0.0900
132	H69     9.7450    -2.2880    10.5970	H	1	FUL1     0.0900
133	H70     9.0720    -3.8170    12.4960	H	1	FUL1     0.0900
134	H71     7.3400    -3.4360    12.1910	H	1	FUL1     0.0900
135	H72     7.8090    -0.9970    12.6560	H	1	FUL1     0.0900
136	H73     9.5310    -1.3910    12.9710	H	1	FUL1     0.0900
137	H74     5.3480     5.0350    -2.0230	H	1	FUL1     0.0900
138	H75     7.0310     2.5420    -2.7100	H	1	FUL1     0.0900
139	H76     6.8870     3.3080    -5.0500	H	1	FUL1     0.0900
140	H77     5.8360     4.6680    -4.5780	H	1	FUL1     0.0900
141	H78     8.8020     4.1600    -3.8400	H	1	FUL1     0.0900
142	H79     8.2010     5.4250    -4.9480	H	1	FUL1     0.0900
143	H80     7.1690     7.5240    -4.0830	H	1	FUL1     0.0900
144	H81     5.8070     6.6000    -3.4300	H	1	FUL1     0.0900
145	H82     6.7120     7.7030    -2.3650	H	1	FUL1     0.0900
146	H83     9.9580     5.6800    -2.3780	H	1	FUL1     0.0900
147	H84     9.7020     7.2760    -3.9840	H	1	FUL1     0.4200
148	H85     8.6270     7.8930    -0.7560	H	1	FUL1     0.0900
149	H86     9.7530     6.5950    -0.2290	H	1	FUL1     0.0900
150	H87     7.8250     5.4290     0.5390	H	1	FUL1     0.0900
151	H88     6.7370     6.5950    -0.2980	H	1	FUL1     0.0900
152	H89     8.2330     4.2040    -1.4690	H	1	FUL1     0.0900
@<TRIPOS>BOND
1	1	2	1
2	1	23	1
3	1	24	1
4	1	25	1
5	2	3	1
6	2	26	1
7	2	27	1
8	3	4	1
9	3	28	1
10	3	29	1
11	4	5	1
12	4	30	1
13	4	31	1
14	5	6	1
15	5	32	1
16	5	33	1
17	6	7	1
18	6	34	1
19	6	35	1
20	7	8	1
21	7	36	1
22	7	37	1
23	8	9	1
24	8	38	1
25	8	39	1
26	9	10	1
27	9	40	1
28	9	41	1
29	10	11	1
30	10	42	1
31	10	43	1
32	11	12	1
33	11	44	1
34	11	45	1
35	12	13	1
36	12	46	1
37	12	47	1
38	13	14	1
39	13	48	1
40	13	49	1
41	14	15	1
42	14	50	1
43	14	51	1
44	15	16	1
45	15	52	1
46	15	53	1
47	16	17	1
48	16	54	1
49	16	55	1
50	17	18	1
51	17	56	1
52	17	57	1
53	18	22	1
54	18	58	1
55	18	59	1
56	19	20	1
57	19	21	1
58	19	98	1
59	20	60	1
60	20	61	1
61	20	62	1
62	21	63	1
63	21	64	1
64	21	65	1
65	19	22	1
66	66	67	1
67	66	71	2
68	67	68	2
69	67	107	1
70	68	69	1
71	68	108	1
72	69	70	2
73	69	89	1
74	70	71	1
75	70	72	1
76	71	109	1
77	72	73	1
78	72	110	1
79	72	111	1
80	73	74	1
81	73	88	1
82	73	112	1
83	74	75	1
84	74	113	1
85	74	114	1
86	75	76	1
87	75	115	1
88	75	116	1
89	76	77	1
90	76	117	1
91	76	118	1
92	77	78	1
93	77	119	1
94	77	120	1
95	78	79	1
96	78	121	1
97	78	122	1
98	79	80	1
99	79	123	1
100	79	124	1
101	80	81	1
102	80	125	1
103	80	126	1
104	81	82	1
105	81	127	1
106	81	128	1
107	82	106	1
108	82	129	1
109	82	130	1
110	83	84	1
111	83	131	1
112	83	132	1
113	84	85	1
114	84	133	1
115	84	134	1
116	85	86	1
117	85	135	1
118	85	136	1
119	86	87	1
120	86	101	1
121	86	102	1
122	87	103	1
123	87	104	1
124	87	105	1
125	88	89	1
126	88	97	1
127	88	137	1
128	89	90	1
129	89	138	1
130	90	91	1
131	90	139	1
132	90	140	1
133	91	92	1
134	91	141	1
135	91	142	1
136	92	93	1
137	92	94	1
138	92	97	1
139	93	143	1
140	93	144	1
141	93	145	1
142	94	95	1
143	94	100	1
144	94	146	1
145	95	96	1
146	95	148	1
147	95	149	1
148	96	97	1
149	96	150	1
150	96	151	1
151	97	152	1
152	66	98	1
153	100	147	1
154	83	106	1
155	99	106	2
