# created with PyMOL 2.5.4
@<TRIPOS>MOLECULE
CRI
140 144 2               
SMALL
USER_CHARGES
@<TRIPOS>ATOM
1	   N	-9.945	11.034	5.245	N.pl3	1	CRI1	0.000	
2	   N	-10.600	4.077	3.000	N.2	1	CRI1	0.000	
3	   N	-10.736	4.585	1.883	N.pl3	1	CRI1	0.000	
4	   N	-11.296	1.365	-0.808	N.pl3	1	CRI1	0.000	
5	   N	-10.018	8.851	5.482	N.2	1	CRI1	0.000	
6	   C	-10.072	9.877	4.742	C.2	1	CRI1	0.000	
7	   C	-10.269	9.815	3.406	C.2	1	CRI1	0.000	
8	   C	-10.016	10.987	1.281	C.3	1	CRI1	0.000	
9	   C	-11.363	10.870	0.561	C.3	1	CRI1	0.000	
10	   C	-8.750	10.218	0.851	C.2	1	CRI1	0.000	
11	   C	-7.554	10.564	1.392	C.2	1	CRI1	0.000	
12	   C	-6.405	9.933	1.076	C.2	1	CRI1	0.000	
13	   C	-6.421	8.930	0.191	C.2	1	CRI1	0.000	
14	   C	-7.580	8.582	-0.378	C.2	1	CRI1	0.000	
15	   C	-8.723	9.216	-0.063	C.2	1	CRI1	0.000	
16	   C	-10.394	8.576	2.894	C.2	1	CRI1	0.000	
17	   C	-10.350	7.472	3.662	C.2	1	CRI1	0.000	
18	   C	-10.481	6.229	3.160	C.2	1	CRI1	0.000	
19	   C	-10.443	5.046	3.799	C.2	1	CRI1	0.000	
20	   C	-10.948	3.856	0.610	C.3	1	CRI1	0.000	
21	   C	-9.775	2.901	0.329	C.3	1	CRI1	0.000	
22	   C	-10.034	2.088	-0.947	C.3	1	CRI1	0.000	
23	   C	-12.447	2.251	-0.648	C.3	1	CRI1	0.000	
24	   C	-12.272	3.073	0.638	C.3	1	CRI1	0.000	
25	   C	-10.681	5.854	1.886	C.2	1	CRI1	0.000	
26	   C	-10.153	7.704	4.972	C.2	1	CRI1	0.000	
27	   O	-10.247	10.983	2.678	O.3	1	CRI1	0.000	
28	  Cl	-7.394	11.867	2.534	Cl	1	CRI1	0.000	
29	  Cl	-10.096	8.617	-0.932	Cl	1	CRI1	0.000	
30	   F	-5.243	10.275	1.618	 F	1	CRI1	0.000	
31	   H	-9.792	11.153	6.277	 H	1	CRI1	0.000	
32	   H	-9.991	11.877	4.621	 H	1	CRI1	0.000	
33	   H	-9.745	12.052	1.046	 H	1	CRI1	0.000	
34	   H	-11.277	11.082	-0.529	 H	1	CRI1	0.000	
35	   H	-12.082	11.628	0.952	 H	1	CRI1	0.000	
36	   H	-11.868	9.893	0.716	 H	1	CRI1	0.000	
37	   H	-5.488	8.405	-0.075	 H	1	CRI1	0.000	
38	   H	-7.561	7.760	-1.116	 H	1	CRI1	0.000	
39	   H	-10.538	8.471	1.814	 H	1	CRI1	0.000	
40	   H	-10.297	4.861	4.871	 H	1	CRI1	0.000	
41	   H	-11.001	4.583	-0.238	 H	1	CRI1	0.000	
42	   H	-8.828	3.482	0.231	 H	1	CRI1	0.000	
43	   H	-9.646	2.196	1.185	 H	1	CRI1	0.000	
44	   H	-9.174	1.407	-1.139	 H	1	CRI1	0.000	
45	   H	-10.089	2.766	-1.831	 H	1	CRI1	0.000	
46	   H	-13.415	1.702	-0.610	 H	1	CRI1	0.000	
47	   H	-12.518	2.930	-1.530	 H	1	CRI1	0.000	
48	   H	-12.282	2.381	1.514	 H	1	CRI1	0.000	
49	   H	-13.127	3.780	0.764	 H	1	CRI1	0.000	
50	   H	-10.786	6.456	0.979	 H	1	CRI1	0.000	
51	   H	-10.091	6.886	5.708	 H	1	CRI1	0.000	
52	   C	-11.377	-0.007	-0.750	C.2	2	CRL1	0.000	
53	   C	-10.283	-2.134	-0.686	C.3	2	CRL1	0.000	
54	   C	-8.878	-2.697	-0.730	C.2	2	CRL1	0.000	
55	   C	-8.220	-2.805	-1.897	C.2	2	CRL1	0.000	
56	   C	-6.971	-3.292	-1.939	C.2	2	CRL1	0.000	
57	   C	-6.299	-3.639	-0.824	C.2	2	CRL1	0.000	
58	   C	-3.954	-3.288	-0.718	C.3	2	CRL1	0.000	
59	   C	-1.610	-3.648	-1.050	C.3	2	CRL1	0.000	
60	   C	-0.541	-4.700	-0.790	C.3	2	CRL1	0.000	
61	   C	1.782	-5.015	-0.836	C.3	2	CRL1	0.000	
62	   C	3.090	-4.281	-1.132	C.3	2	CRL1	0.000	
63	   C	4.325	-5.165	-0.892	C.3	2	CRL1	0.000	
64	   C	5.628	-4.399	-1.171	C.3	2	CRL1	0.000	
65	   C	6.878	-5.259	-0.921	C.3	2	CRL1	0.000	
66	   C	8.170	-4.466	-1.181	C.3	2	CRL1	0.000	
67	   C	9.432	-5.304	-0.924	C.3	2	CRL1	0.000	
68	   C	10.712	-4.488	-1.167	C.3	2	CRL1	0.000	
69	   C	11.986	-5.309	-0.904	C.3	2	CRL1	0.000	
70	   C	13.257	-4.474	-1.133	C.3	2	CRL1	0.000	
71	   C	14.538	-5.281	-0.867	C.3	2	CRL1	0.000	
72	   C	15.801	-4.433	-1.084	C.3	2	CRL1	0.000	
73	   C	17.088	-5.231	-0.816	C.3	2	CRL1	0.000	
74	   C	18.347	-4.374	-1.024	C.3	2	CRL1	0.000	
75	   C	19.636	-5.167	-0.756	C.3	2	CRL1	0.000	
76	   C	20.893	-4.304	-0.958	C.3	2	CRL1	0.000	
77	   C	22.183	-5.095	-0.691	C.3	2	CRL1	0.000	
78	   C	23.434	-4.229	-0.892	C.3	2	CRL1	0.000	
79	   C	-3.927	-2.276	-1.860	C.3	2	CRL1	0.000	
80	   C	-4.006	-2.604	0.644	C.3	2	CRL1	0.000	
81	   C	-7.007	-3.615	0.322	C.2	2	CRL1	0.000	
82	   C	-8.257	-3.130	0.379	C.2	2	CRL1	0.000	
83	   O	-12.442	-0.563	-0.612	O.co2	2	CRL1	0.000	
84	   O	-10.220	-0.730	-0.831	O.3	2	CRL1	0.000	
85	   O	-5.041	-4.181	-0.882	O.3	2	CRL1	0.000	
86	   O	-2.869	-4.198	-0.754	O.3	2	CRL1	0.000	
87	   O	0.715	-4.127	-1.062	O.3	2	CRL1	0.000	
88	   H	-10.776	-2.383	0.281	 H	2	CRL1	0.000	
89	   H	-10.886	-2.565	-1.518	 H	2	CRL1	0.000	
90	   H	-8.715	-2.498	-2.833	 H	2	CRL1	0.000	
91	   H	-6.475	-3.394	-2.919	 H	2	CRL1	0.000	
92	   H	-1.572	-3.355	-2.124	 H	2	CRL1	0.000	
93	   H	-1.416	-2.762	-0.405	 H	2	CRL1	0.000	
94	   H	-0.577	-5.024	0.276	 H	2	CRL1	0.000	
95	   H	-0.699	-5.582	-1.452	 H	2	CRL1	0.000	
96	   H	1.767	-5.350	0.226	 H	2	CRL1	0.000	
97	   H	1.677	-5.898	-1.507	 H	2	CRL1	0.000	
98	   H	3.085	-3.931	-2.192	 H	2	CRL1	0.000	
99	   H	3.155	-3.374	-0.484	 H	2	CRL1	0.000	
100	   H	4.324	-5.523	0.165	 H	2	CRL1	0.000	
101	   H	4.272	-6.064	-1.551	 H	2	CRL1	0.000	
102	   H	5.630	-4.045	-2.229	 H	2	CRL1	0.000	
103	   H	5.669	-3.495	-0.517	 H	2	CRL1	0.000	
104	   H	6.873	-5.622	0.134	 H	2	CRL1	0.000	
105	   H	6.851	-6.156	-1.584	 H	2	CRL1	0.000	
106	   H	8.175	-4.105	-2.237	 H	2	CRL1	0.000	
107	   H	8.186	-3.566	-0.521	 H	2	CRL1	0.000	
108	   H	9.423	-5.673	0.129	 H	2	CRL1	0.000	
109	   H	9.427	-6.198	-1.592	 H	2	CRL1	0.000	
110	   H	10.721	-4.120	-2.221	 H	2	CRL1	0.000	
111	   H	10.709	-3.593	-0.501	 H	2	CRL1	0.000	
112	   H	11.974	-5.684	0.146	 H	2	CRL1	0.000	
113	   H	11.999	-6.199	-1.578	 H	2	CRL1	0.000	
114	   H	13.268	-4.099	-2.184	 H	2	CRL1	0.000	
115	   H	13.237	-3.583	-0.461	 H	2	CRL1	0.000	
116	   H	14.524	-5.663	0.182	 H	2	CRL1	0.000	
117	   H	14.565	-6.168	-1.545	 H	2	CRL1	0.000	
118	   H	15.815	-4.051	-2.132	 H	2	CRL1	0.000	
119	   H	15.771	-3.546	-0.407	 H	2	CRL1	0.000	
120	   H	17.072	-5.617	0.231	 H	2	CRL1	0.000	
121	   H	17.124	-6.114	-1.497	 H	2	CRL1	0.000	
122	   H	18.362	-3.987	-2.070	 H	2	CRL1	0.000	
123	   H	18.308	-3.491	-0.342	 H	2	CRL1	0.000	
124	   H	19.620	-5.556	0.290	 H	2	CRL1	0.000	
125	   H	19.677	-6.047	-1.440	 H	2	CRL1	0.000	
126	   H	20.909	-3.914	-2.003	 H	2	CRL1	0.000	
127	   H	20.851	-3.424	-0.274	 H	2	CRL1	0.000	
128	   H	22.172	-5.487	0.354	 H	2	CRL1	0.000	
129	   H	22.232	-5.975	-1.376	 H	2	CRL1	0.000	
130	   H	24.362	-4.815	-0.695	 H	2	CRL1	0.000	
131	   H	23.492	-3.842	-1.935	 H	2	CRL1	0.000	
132	   H	23.433	-3.355	-0.201	 H	2	CRL1	0.000	
133	   H	-3.074	-1.566	-1.776	 H	2	CRL1	0.000	
134	   H	-4.832	-1.630	-1.855	 H	2	CRL1	0.000	
135	   H	-3.873	-2.777	-2.853	 H	2	CRL1	0.000	
136	   H	-4.062	-3.347	1.472	 H	2	CRL1	0.000	
137	   H	-3.109	-1.973	0.826	 H	2	CRL1	0.000	
138	   H	-4.880	-1.920	0.731	 H	2	CRL1	0.000	
139	   H	-6.542	-3.990	1.249	 H	2	CRL1	0.000	
140	   H	-8.777	-3.097	1.351	 H	2	CRL1	0.000	
@<TRIPOS>BOND
1 1 6 1
2 1 31 1
3 1 32 1
4 2 3 1
5 3 20 1
6 3 25 1
7 4 23 1
8 4 52 1
9 5 6 2
10 6 7 1
11 7 16 2
12 7 27 1
13 8 9 1
14 8 10 1
15 8 33 1
16 9 34 1
17 9 35 1
18 9 36 1
19 10 11 1
20 10 15 2
21 11 12 2
22 11 28 1
23 12 13 1
24 12 30 1
25 13 14 2
26 13 37 1
27 14 15 1
28 14 38 1
29 15 29 1
30 16 17 1
31 16 39 1
32 17 18 1
33 17 26 2
34 18 19 1
35 18 25 2
36 2 19 2
37 19 40 1
38 20 21 1
39 20 24 1
40 20 41 1
41 21 22 1
42 21 42 1
43 21 43 1
44 4 22 1
45 22 44 1
46 22 45 1
47 23 24 1
48 23 46 1
49 23 47 1
50 24 48 1
51 24 49 1
52 25 50 1
53 5 26 1
54 26 51 1
55 8 27 1
56 52 83 2
57 52 84 1
58 53 54 1
59 53 88 1
60 53 89 1
61 54 55 1
62 54 82 2
63 55 56 2
64 55 90 1
65 56 57 1
66 56 91 1
67 57 81 2
68 57 85 1
69 58 79 1
70 58 80 1
71 58 86 1
72 59 60 1
73 59 92 1
74 59 93 1
75 60 87 1
76 60 94 1
77 60 95 1
78 61 62 1
79 61 96 1
80 61 97 1
81 62 63 1
82 62 98 1
83 62 99 1
84 63 64 1
85 63 100 1
86 63 101 1
87 64 65 1
88 64 102 1
89 64 103 1
90 65 66 1
91 65 104 1
92 65 105 1
93 66 67 1
94 66 106 1
95 66 107 1
96 67 68 1
97 67 108 1
98 67 109 1
99 68 69 1
100 68 110 1
101 68 111 1
102 69 70 1
103 69 112 1
104 69 113 1
105 70 71 1
106 70 114 1
107 70 115 1
108 71 72 1
109 71 116 1
110 71 117 1
111 72 73 1
112 72 118 1
113 72 119 1
114 73 74 1
115 73 120 1
116 73 121 1
117 74 75 1
118 74 122 1
119 74 123 1
120 75 76 1
121 75 124 1
122 75 125 1
123 76 77 1
124 76 126 1
125 76 127 1
126 77 78 1
127 77 128 1
128 77 129 1
129 78 130 1
130 78 131 1
131 78 132 1
132 79 133 1
133 79 134 1
134 79 135 1
135 80 136 1
136 80 137 1
137 80 138 1
138 81 82 1
139 81 139 1
140 82 140 1
141 53 84 1
142 58 85 1
143 59 86 1
144 61 87 1
@<TRIPOS>SUBSTRUCTURE
1	CRI1	1	GROUP	1 ****	CRI
2	CRL1	52	GROUP	1 ****	CRL
