# created with PyMOL 2.5.4
@<TRIPOS>MOLECULE
PTX
126 132 2               
SMALL
USER_CHARGES
@<TRIPOS>ATOM
1	   C	5.213	-0.956	-0.912	C.3	1	PTL1	0.000	
2	   C	4.204	-1.982	-0.411	C.3	1	PTL1	0.000	
3	   C	6.429	-0.921	0.012	C.3	1	PTL1	0.000	
4	   C	6.487	-2.219	-2.494	C.3	1	PTL1	0.000	
5	   O	5.566	-1.180	-2.258	O.3	1	PTL1	0.000	
6	   H	4.681	-2.968	-0.221	 H	1	PTL1	0.000	
7	   H	3.384	-2.171	-1.138	 H	1	PTL1	0.000	
8	   H	3.752	-1.657	0.553	 H	1	PTL1	0.000	
9	   H	6.900	-1.920	0.146	 H	1	PTL1	0.000	
10	   H	7.206	-0.214	-0.361	 H	1	PTL1	0.000	
11	   H	6.136	-0.577	1.031	 H	1	PTL1	0.000	
12	   H	6.534	-2.383	-3.594	 H	1	PTL1	0.000	
13	   H	7.504	-1.928	-2.153	 H	1	PTL1	0.000	
14	   H	6.151	-3.163	-2.014	 H	1	PTL1	0.000	
15	   N	5.056	1.624	-3.291	N.pl3	2	PTX1	0.000	
16	   C	2.315	0.831	-0.776	C.2	2	PTX1	0.000	
17	   C	3.548	0.625	-1.668	C.3	2	PTX1	0.000	
18	   C	3.838	1.890	-2.510	C.3	2	PTX1	0.000	
19	   C	2.638	2.168	-3.400	C.2	2	PTX1	0.000	
20	   C	2.363	1.387	-4.460	C.2	2	PTX1	0.000	
21	   C	1.300	1.630	-5.243	C.2	2	PTX1	0.000	
22	   C	0.488	2.662	-4.972	C.2	2	PTX1	0.000	
23	   C	0.743	3.445	-3.914	C.2	2	PTX1	0.000	
24	   C	1.808	3.194	-3.137	C.2	2	PTX1	0.000	
25	   C	5.476	2.225	-4.446	C.2	2	PTX1	0.000	
26	   C	4.957	3.386	-4.942	C.2	2	PTX1	0.000	
27	   C	4.937	3.600	-6.274	C.2	2	PTX1	0.000	
28	   C	4.426	4.727	-6.793	C.2	2	PTX1	0.000	
29	   C	3.935	5.679	-5.988	C.2	2	PTX1	0.000	
30	   C	3.975	5.498	-4.661	C.2	2	PTX1	0.000	
31	   C	4.487	4.367	-4.149	C.2	2	PTX1	0.000	
32	   C	0.315	-0.393	-0.094	C.3	2	PTX1	0.000	
33	   C	-0.478	0.894	0.111	C.2	2	PTX1	0.000	
34	   C	-0.777	1.604	-1.196	C.3	2	PTX1	0.000	
35	   C	-0.953	1.237	1.335	C.2	2	PTX1	0.000	
36	   C	-2.051	2.266	1.599	C.3	2	PTX1	0.000	
37	   C	-3.011	4.217	0.551	C.2	2	PTX1	0.000	
38	   C	-3.366	4.730	-0.832	C.3	2	PTX1	0.000	
39	   C	-3.295	1.654	2.300	C.2	2	PTX1	0.000	
40	   C	-0.402	0.484	2.551	C.3	2	PTX1	0.000	
41	   C	-0.860	0.929	3.971	C.3	2	PTX1	0.000	
42	   C	1.112	0.846	2.690	C.3	2	PTX1	0.000	
43	   C	-0.653	-1.004	2.185	C.3	2	PTX1	0.000	
44	   C	-2.060	-1.386	1.653	C.3	2	PTX1	0.000	
45	   C	-2.242	-3.431	0.305	C.2	2	PTX1	0.000	
46	   C	-2.360	-4.795	0.275	C.2	2	PTX1	0.000	
47	   C	-2.503	-5.474	-0.881	C.2	2	PTX1	0.000	
48	   C	-2.619	-6.812	-0.884	C.2	2	PTX1	0.000	
49	   C	-2.595	-7.496	0.269	C.2	2	PTX1	0.000	
50	   C	-2.452	-6.833	1.425	C.2	2	PTX1	0.000	
51	   C	-2.335	-5.496	1.425	C.2	2	PTX1	0.000	
52	   C	-3.294	-0.881	2.443	C.3	2	PTX1	0.000	
53	   C	-4.042	0.362	1.833	C.3	2	PTX1	0.000	
54	   C	-4.123	0.387	0.289	C.3	2	PTX1	0.000	
55	   C	-5.511	0.450	2.340	C.3	2	PTX1	0.000	
56	   C	-5.744	-0.139	3.727	C.3	2	PTX1	0.000	
57	   C	-5.412	-1.618	3.797	C.3	2	PTX1	0.000	
58	   C	-4.102	-2.013	3.111	C.3	2	PTX1	0.000	
59	   C	-3.617	-3.866	4.649	C.2	2	PTX1	0.000	
60	   C	-2.423	-4.338	5.460	C.3	2	PTX1	0.000	
61	   C	-5.040	-2.821	2.209	C.3	2	PTX1	0.000	
62	   C	0.388	-1.361	1.102	C.3	2	PTX1	0.000	
63	   O	2.076	1.876	-0.215	O.co2	2	PTX1	0.000	
64	   O	4.694	0.359	-0.883	O.3	2	PTX1	0.000	
65	   O	6.253	1.564	-5.095	O.2	2	PTX1	0.000	
66	   O	1.554	-0.298	-0.762	O.3	2	PTX1	0.000	
67	   O	-2.453	2.980	0.444	O.3	2	PTX1	0.000	
68	   O	-3.200	4.821	1.581	O.co2	2	PTX1	0.000	
69	   O	-3.681	2.217	3.303	O.2	2	PTX1	0.000	
70	   O	-2.108	-2.784	1.513	O.3	2	PTX1	0.000	
71	   O	-2.262	-2.791	-0.729	O.co2	2	PTX1	0.000	
72	   O	-6.400	-0.185	1.445	O.3	2	PTX1	0.000	
73	   O	-3.271	-2.740	3.967	O.3	2	PTX1	0.000	
74	   O	-4.686	-4.430	4.635	O.co2	2	PTX1	0.000	
75	   O	-6.192	-2.394	2.915	O.3	2	PTX1	0.000	
76	   O	-0.418	-1.810	3.309	O.3	2	PTX1	0.000	
77	   H	3.349	-0.213	-2.371	 H	2	PTX1	0.000	
78	   H	4.050	2.718	-1.796	 H	2	PTX1	0.000	
79	   H	3.015	0.531	-4.701	 H	2	PTX1	0.000	
80	   H	1.094	0.980	-6.110	 H	2	PTX1	0.000	
81	   H	-0.387	2.863	-5.613	 H	2	PTX1	0.000	
82	   H	0.076	4.292	-3.681	 H	2	PTX1	0.000	
83	   H	1.995	3.849	-2.269	 H	2	PTX1	0.000	
84	   H	5.609	0.817	-3.008	 H	2	PTX1	0.000	
85	   H	5.316	2.849	-6.988	 H	2	PTX1	0.000	
86	   H	4.406	4.873	-7.887	 H	2	PTX1	0.000	
87	   H	3.519	6.608	-6.411	 H	2	PTX1	0.000	
88	   H	3.601	6.289	-3.989	 H	2	PTX1	0.000	
89	   H	4.541	4.304	-3.053	 H	2	PTX1	0.000	
90	   H	-0.337	-0.934	-0.831	 H	2	PTX1	0.000	
91	   H	-1.821	1.460	-1.544	 H	2	PTX1	0.000	
92	   H	-0.539	2.689	-1.132	 H	2	PTX1	0.000	
93	   H	-0.142	1.227	-2.026	 H	2	PTX1	0.000	
94	   H	-1.568	3.003	2.284	 H	2	PTX1	0.000	
95	   H	-4.092	4.043	-1.323	 H	2	PTX1	0.000	
96	   H	-3.830	5.740	-0.772	 H	2	PTX1	0.000	
97	   H	-2.452	4.805	-1.464	 H	2	PTX1	0.000	
98	   H	-0.357	0.331	4.764	 H	2	PTX1	0.000	
99	   H	-0.611	1.994	4.178	 H	2	PTX1	0.000	
100	   H	-1.926	0.858	4.227	 H	2	PTX1	0.000	
101	   H	1.601	0.274	3.511	 H	2	PTX1	0.000	
102	   H	1.740	0.667	1.801	 H	2	PTX1	0.000	
103	   H	1.258	1.931	2.897	 H	2	PTX1	0.000	
104	   H	-2.140	-0.943	0.650	 H	2	PTX1	0.000	
105	   H	-2.531	-4.969	-1.860	 H	2	PTX1	0.000	
106	   H	-2.736	-7.354	-1.838	 H	2	PTX1	0.000	
107	   H	-2.691	-8.595	0.266	 H	2	PTX1	0.000	
108	   H	-2.430	-7.390	2.378	 H	2	PTX1	0.000	
109	   H	-2.217	-5.005	2.404	 H	2	PTX1	0.000	
110	   H	-2.883	-0.487	3.394	 H	2	PTX1	0.000	
111	   H	-4.491	-0.575	-0.130	 H	2	PTX1	0.000	
112	   H	-4.791	1.203	-0.070	 H	2	PTX1	0.000	
113	   H	-3.159	0.572	-0.214	 H	2	PTX1	0.000	
114	   H	-5.854	1.514	2.337	 H	2	PTX1	0.000	
115	   H	-7.097	-0.637	1.924	 H	2	PTX1	0.000	
116	   H	-5.121	0.392	4.484	 H	2	PTX1	0.000	
117	   H	-6.807	0.011	4.032	 H	2	PTX1	0.000	
118	   H	-5.537	-2.007	4.833	 H	2	PTX1	0.000	
119	   H	-1.539	-4.498	4.802	 H	2	PTX1	0.000	
120	   H	-2.164	-3.582	6.237	 H	2	PTX1	0.000	
121	   H	-2.648	-5.299	5.974	 H	2	PTX1	0.000	
122	   H	-4.939	-3.925	2.235	 H	2	PTX1	0.000	
123	   H	-5.077	-2.459	1.161	 H	2	PTX1	0.000	
124	   H	-0.615	-2.724	3.081	 H	2	PTX1	0.000	
125	   H	0.275	-2.413	0.754	 H	2	PTX1	0.000	
126	   H	1.409	-1.388	1.541	 H	2	PTX1	0.000	
@<TRIPOS>BOND
1 1 2 1
2 1 3 1
3 1 5 1
4 2 6 1
5 2 7 1
6 2 8 1
7 3 9 1
8 3 10 1
9 3 11 1
10 4 12 1
11 4 13 1
12 4 14 1
13 4 5 1
14 15 25 1
15 15 84 1
16 16 17 1
17 16 66 1
18 17 18 1
19 17 64 1
20 17 77 1
21 15 18 1
22 18 19 1
23 18 78 1
24 19 20 1
25 19 24 2
26 20 21 2
27 20 79 1
28 21 22 1
29 21 80 1
30 22 23 2
31 22 81 1
32 23 24 1
33 23 82 1
34 24 83 1
35 25 26 1
36 25 65 2
37 26 27 1
38 26 31 2
39 27 28 2
40 27 85 1
41 28 29 1
42 28 86 1
43 29 30 2
44 29 87 1
45 30 31 1
46 30 88 1
47 31 89 1
48 32 33 1
49 32 62 1
50 32 90 1
51 33 34 1
52 33 35 2
53 34 91 1
54 34 92 1
55 34 93 1
56 35 36 1
57 35 40 1
58 36 39 1
59 36 67 1
60 36 94 1
61 37 38 1
62 37 68 2
63 38 95 1
64 38 96 1
65 38 97 1
66 39 53 1
67 39 69 2
68 40 41 1
69 40 42 1
70 40 43 1
71 41 98 1
72 41 99 1
73 41 100 1
74 42 101 1
75 42 102 1
76 42 103 1
77 43 44 1
78 43 62 1
79 43 76 1
80 44 52 1
81 44 70 1
82 44 104 1
83 45 46 1
84 45 71 2
85 46 47 1
86 46 51 2
87 47 48 2
88 47 105 1
89 48 49 1
90 48 106 1
91 49 50 2
92 49 107 1
93 50 51 1
94 50 108 1
95 51 109 1
96 52 53 1
97 52 58 1
98 52 110 1
99 53 54 1
100 53 55 1
101 54 111 1
102 54 112 1
103 54 113 1
104 55 56 1
105 55 72 1
106 55 114 1
107 56 57 1
108 56 116 1
109 56 117 1
110 57 58 1
111 57 75 1
112 57 118 1
113 58 61 1
114 58 73 1
115 59 60 1
116 59 74 2
117 60 119 1
118 60 120 1
119 60 121 1
120 61 75 1
121 61 122 1
122 61 123 1
123 62 125 1
124 62 126 1
125 16 63 2
126 1 64 1
127 32 66 1
128 37 67 1
129 45 70 1
130 72 115 1
131 59 73 1
132 76 124 1
@<TRIPOS>SUBSTRUCTURE
1	PTL1	1	GROUP	1 ****	PTL
2	PTX1	15	GROUP	1 ****	PTX
