@<TRIPOS>MOLECULE
DTX
168 173 1 0 0
SMALL
USER_CHARGES


@<TRIPOS>ATOM
      1 C          -2.1881   16.7216   -0.0107 C.3       1     DTL    0.0000
      2 C          -2.7539   15.3519   -0.4089 C.3       1     DTL    0.0000
      3 C          -2.0840   14.2081    0.3692 C.3       1     DTL    0.0000
      4 C          -2.6467   12.8343   -0.0304 C.3       1     DTL    0.0000
      5 C          -1.9759   11.6888    0.7453 C.3       1     DTL    0.0000
      6 C          -2.5338   10.3158    0.3366 C.3       1     DTL    0.0000
      7 C          -1.8608    9.1663    1.1045 C.3       1     DTL    0.0000
      8 C          -2.4109    7.7954    0.6785 C.3       1     DTL    0.0000
      9 C          -1.7334    6.6390    1.4321 C.3       1     DTL    0.0000
     10 C          -2.2715    5.2718    0.9799 C.3       1     DTL    0.0000
     11 C          -1.5869    4.1060    1.7122 C.3       1     DTL    0.0000
     12 C          -2.1083    2.7447    1.2238 C.3       1     DTL    0.0000
     13 C          -1.4141    1.5663    1.9281 C.3       1     DTL    0.0000
     14 C          -1.9132    0.2122    1.3901 C.3       1     DTL    0.0000
     15 C          -1.2529   -1.0036    2.0553 C.3       1     DTL    0.0000
     16 C           0.2172   -1.2078    1.7043 C.3       1     DTL    0.0000
     17 O          -2.0467   -2.1637    1.9998 O.3       1     DTL    0.0000
     18 C          -2.0455   -3.0136    0.8656 C.3       1     DTL    0.0000
     19 C          -3.2799   -3.9043    1.0751 C.3       1     DTL    0.0000
     20 C          -2.2664   -2.2790   -0.4520 C.3       1     DTL    0.0000
     21 O          -0.9161   -3.8646    0.9833 O.3       1     DTX    0.0000
     22 C          -0.0507   -4.0537   -0.1167 C.3       1     DTX    0.0000
     23 C           1.3986   -4.2025    0.3815 C.2       1     DTX    0.0000
     24 O           1.7248   -4.8860    1.3253 O.2       1     DTX    0.0000
     25 O           2.2233   -3.4545   -0.4024 O.3       1     DTX    0.0000
     26 C           3.5998   -3.2738   -0.1574 C.3       1     DTX    0.0000
     27 C           3.8912   -1.8317    0.2990 C.3       1     DTX    0.0000
     28 C           5.1968   -1.7445    1.1165 C.3       1     DTX    0.0000
     29 O           5.3121   -0.4449    1.6305 O.3       1     DTX    0.0000
     30 C           6.3884   -1.9503    0.1458 C.3       1     DTX    0.0000
     31 O           6.4232   -0.8625   -0.7428 O.3       1     DTX    0.0000
     32 C           6.1592   -0.9600   -2.0915 C.2       1     DTX    0.0000
     33 O           5.8449   -2.0300   -2.5756 O.2       1     DTX    0.0000
     34 C           6.2527    0.1539   -2.8813 C.ar      1     DTX    0.0000
     35 C           6.0071    0.1124   -4.2060 C.ar      1     DTX    0.0000
     36 C           6.1064    1.2189   -4.9603 C.ar      1     DTX    0.0000
     37 C           6.4534    2.3884   -4.4038 C.ar      1     DTX    0.0000
     38 C           6.6992    2.4442   -3.0871 C.ar      1     DTX    0.0000
     39 C           6.5982    1.3367   -2.3355 C.ar      1     DTX    0.0000
     40 C           7.7857   -2.1734    0.7751 C.3       1     DTX    0.0000
     41 C           8.3244   -3.6502    0.7552 C.3       1     DTX    0.0000
     42 C           7.9521   -4.4701   -0.5019 C.3       1     DTX    0.0000
     43 C           7.7471   -4.4217    1.9847 C.2       1     DTX    0.0000
     44 O           8.4417   -4.6199    2.9591 O.2       1     DTX    0.0000
     45 C           6.3161   -4.9968    2.0964 C.3       1     DTX    0.0000
     46 O           6.3537   -6.3213    1.5784 O.3       1     DTX    0.0000
     47 C           5.1940   -4.1080    1.5918 C.2       1     DTX    0.0000
     48 C           4.3784   -4.3834    0.5453 C.2       1     DTX    0.0000
     49 C           4.2990   -5.7170   -0.1653 C.3       1     DTX    0.0000
     50 C           5.0458   -2.7538    2.2870 C.3       1     DTX    0.0000
     51 C           3.6359   -2.7245    2.9554 C.3       1     DTX    0.0000
     52 C           5.9080   -2.4867    3.5561 C.3       1     DTX    0.0000
     53 C           9.8780   -3.6866    0.8419 C.3       1     DTX    0.0000
     54 O          10.4626   -3.6901   -0.4432 O.3       1     DTX    0.0000
     55 C          10.4843   -2.5382    1.6408 C.3       1     DTX    0.0000
     56 C          10.1922   -1.1803    1.0264 C.3       1     DTX    0.0000
     57 O          10.7125   -1.0540   -0.2776 O.3       1     DTX    0.0000
     58 C           9.4166   -0.8755   -0.8226 C.3       1     DTX    0.0000
     59 C           8.7495   -0.9900    0.5510 C.3       1     DTX    0.0000
     60 O           8.1772    0.1793    1.0583 O.3       1     DTX    0.0000
     61 C           8.7053    1.4305    0.9703 C.2       1     DTX    0.0000
     62 C           7.7557    2.4131    1.6313 C.3       1     DTX    0.0000
     63 O           9.7522    1.7467    0.4550 O.2       1     DTX    0.0000
     64 C          -0.4579   -5.2641   -0.9791 C.3       1     DTX    0.0000
     65 N           0.3846   -5.3233   -2.1825 N.am      1     DTX    0.0000
     66 C           0.2346   -4.4723   -3.2444 C.2       1     DTX    0.0000
     67 O          -0.6242   -3.6265   -3.2681 O.2       1     DTX    0.0000
     68 C           1.2581   -4.6745   -4.3657 C.3       1     DTX    0.0000
     69 C           2.6549   -4.3180   -3.8225 C.3       1     DTX    0.0000
     70 C           1.2255   -6.1441   -4.8269 C.3       1     DTX    0.0000
     71 C           0.9362   -3.7593   -5.5642 C.3       1     DTX    0.0000
     72 C          -0.3445   -6.5866   -0.2343 C.ar      1     DTX    0.0000
     73 C           0.7852   -7.3191   -0.2433 C.ar      1     DTX    0.0000
     74 C           0.8785   -8.4804    0.4227 C.ar      1     DTX    0.0000
     75 C          -0.1713   -8.9431    1.1161 C.ar      1     DTX    0.0000
     76 C          -1.3095   -8.2349    1.1321 C.ar      1     DTX    0.0000
     77 C          -1.3877   -7.0747    0.4623 C.ar      1     DTX    0.0000
     78 H          -2.6832   17.5401   -0.5824 H         1     DTL    0.0000
     79 H          -2.3464   16.9219    1.0736 H         1     DTL    0.0000
     80 H          -1.0945   16.7794   -0.2151 H         1     DTL    0.0000
     81 H          -2.6036   15.1974   -1.5042 H         1     DTL    0.0000
     82 H          -3.8538   15.3397   -0.2187 H         1     DTL    0.0000
     83 H          -2.2366   14.3667    1.4632 H         1     DTL    0.0000
     84 H          -0.9845   14.2272    0.1790 H         1     DTL    0.0000
     85 H          -2.4946   12.6780   -1.1249 H         1     DTL    0.0000
     86 H          -3.7461   12.8155    0.1598 H         1     DTL    0.0000
     87 H          -2.1321   11.8411    1.8397 H         1     DTL    0.0000
     88 H          -0.8759   11.7109    0.5585 H         1     DTL    0.0000
     89 H          -2.3798   10.1675   -0.7587 H         1     DTL    0.0000
     90 H          -3.6335   10.2922    0.5252 H         1     DTL    0.0000
     91 H          -2.0221    9.3066    2.1997 H         1     DTL    0.0000
     92 H          -0.7602    9.1952    0.9223 H         1     DTL    0.0000
     93 H          -2.2542    7.6619   -0.4184 H         1     DTL    0.0000
     94 H          -3.5108    7.7637    0.8646 H         1     DTL    0.0000
     95 H          -1.9012    6.7604    2.5285 H         1     DTL    0.0000
     96 H          -0.6322    6.6787    1.2557 H         1     DTL    0.0000
     97 H          -2.1107    5.1604   -0.1189 H         1     DTL    0.0000
     98 H          -3.3717    5.2279    1.1619 H         1     DTL    0.0000
     99 H          -1.7628    4.2004    2.8100 H         1     DTL    0.0000
    100 H          -0.4851    4.1610    1.5438 H         1     DTL    0.0000
    101 H          -1.9415    2.6648    0.1231 H         1     DTL    0.0000
    102 H          -3.2089    2.6851    1.3990 H         1     DTL    0.0000
    103 H          -1.6026    1.6314    3.0258 H         1     DTL    0.0000
    104 H          -0.3135    1.6525    1.7712 H         1     DTL    0.0000
    105 H          -1.7261    0.2092    0.2941 H         1     DTL    0.0000
    106 H          -3.0182    0.1631    1.5423 H         1     DTL    0.0000
    107 H          -1.2593   -0.7562    3.1509 H         1     DTL    0.0000
    108 H           0.6391   -2.0887    2.2364 H         1     DTL    0.0000
    109 H           0.8364   -0.3375    2.0169 H         1     DTL    0.0000
    110 H           0.3781   -1.3252    0.6124 H         1     DTL    0.0000
    111 H          -3.4392   -4.5983    0.2205 H         1     DTL    0.0000
    112 H          -4.2103   -3.2989    1.1711 H         1     DTL    0.0000
    113 H          -3.1926   -4.5168    2.0019 H         1     DTL    0.0000
    114 H          -3.1832   -1.6493   -0.3983 H         1     DTL    0.0000
    115 H          -1.4383   -1.6107   -0.7627 H         1     DTL    0.0000
    116 H          -2.4459   -2.9857   -1.2913 H         1     DTL    0.0000
    117 H          -0.0498   -3.1401   -0.7432 H         1     DTX    0.0000
    118 H           4.0493   -3.3233   -1.1840 H         1     DTX    0.0000
    119 H           3.9081   -1.1460   -0.5786 H         1     DTX    0.0000
    120 H           3.0434   -1.4145    0.8847 H         1     DTX    0.0000
    121 H           5.4504    0.1656    0.8997 H         1     DTX    0.0000
    122 H           6.1685   -2.8574   -0.4352 H         1     DTX    0.0000
    123 H           5.7183   -0.8187   -4.7211 H         1     DTX    0.0000
    124 H           5.9025    1.1691   -6.0434 H         1     DTX    0.0000
    125 H           6.5351    3.2969   -5.0235 H         1     DTX    0.0000
    126 H           6.9844    3.4033   -2.6224 H         1     DTX    0.0000
    127 H           6.8100    1.4423   -1.2591 H         1     DTX    0.0000
    128 H           7.6491   -1.9779    1.8572 H         1     DTX    0.0000
    129 H           8.1627   -3.9159   -1.4435 H         1     DTX    0.0000
    130 H           8.5044   -5.4368   -0.5351 H         1     DTX    0.0000
    131 H           6.8874   -4.7573   -0.5515 H         1     DTX    0.0000
    132 H           6.0837   -5.1574    3.1764 H         1     DTX    0.0000
    133 H           6.8783   -6.8749    2.1616 H         1     DTX    0.0000
    134 H           5.2066   -5.9536   -0.7578 H         1     DTX    0.0000
    135 H           4.0771   -6.5415    0.5472 H         1     DTX    0.0000
    136 H           3.4645   -5.7320   -0.8961 H         1     DTX    0.0000
    137 H           3.4081   -1.7265    3.3946 H         1     DTX    0.0000
    138 H           2.7904   -2.9694    2.2907 H         1     DTX    0.0000
    139 H           3.5417   -3.4824    3.7659 H         1     DTX    0.0000
    140 H           5.7420   -1.4572    3.9458 H         1     DTX    0.0000
    141 H           5.6548   -3.1779    4.3910 H         1     DTX    0.0000
    142 H           7.0009   -2.5962    3.4819 H         1     DTX    0.0000
    143 H          10.2208   -4.6543    1.2822 H         1     DTX    0.0000
    144 H          11.2683   -3.1689   -0.4493 H         1     DTX    0.0000
    145 H          10.0837   -2.5463    2.6813 H         1     DTX    0.0000
    146 H          11.5894   -2.6711    1.7226 H         1     DTX    0.0000
    147 H          10.5907   -0.3588    1.6626 H         1     DTX    0.0000
    148 H           9.3327    0.0999   -1.3430 H         1     DTX    0.0000
    149 H           9.1681   -1.7073   -1.5140 H         1     DTX    0.0000
    150 H           6.7539    2.3745    1.1461 H         1     DTX    0.0000
    151 H           7.6433    2.1730    2.7129 H         1     DTX    0.0000
    152 H           8.1398    3.4544    1.5451 H         1     DTX    0.0000
    153 H          -1.5178   -5.1538   -1.3102 H         1     DTX    0.0000
    154 H           1.1566   -5.9872   -2.1924 H         1     DTX    0.0000
    155 H           3.4308   -4.4040   -4.6163 H         1     DTX    0.0000
    156 H           2.6841   -3.2741   -3.4350 H         1     DTX    0.0000
    157 H           2.9610   -4.9955   -2.9956 H         1     DTX    0.0000
    158 H           1.9330   -6.3141   -5.6699 H         1     DTX    0.0000
    159 H           0.2080   -6.4316   -5.1771 H         1     DTX    0.0000
    160 H           1.5158   -6.8481   -4.0149 H         1     DTX    0.0000
    161 H           0.9734   -2.6825   -5.2818 H         1     DTX    0.0000
    162 H           1.6696   -3.9051   -6.3893 H         1     DTX    0.0000
    163 H          -0.0747   -3.9726   -5.9802 H         1     DTX    0.0000
    164 H           1.6724   -6.9802   -0.7960 H         1     DTX    0.0000
    165 H           1.8196   -9.0555    0.4014 H         1     DTX    0.0000
    166 H          -0.1002   -9.8967    1.6650 H         1     DTX    0.0000
    167 H          -2.1811   -8.6077    1.6960 H         1     DTX    0.0000
    168 H          -2.3376   -6.5209    0.4933 H         1     DTX    0.0000
@<TRIPOS>BOND
     1     1     2     1
     2     1    78     1
     3     1    79     1
     4     1    80     1
     5     2     3     1
     6     2    81     1
     7     2    82     1
     8     3     4     1
     9     3    83     1
    10     3    84     1
    11     4     5     1
    12     4    85     1
    13     4    86     1
    14     5     6     1
    15     5    87     1
    16     5    88     1
    17     6     7     1
    18     6    89     1
    19     6    90     1
    20     7     8     1
    21     7    91     1
    22     7    92     1
    23     8     9     1
    24     8    93     1
    25     8    94     1
    26     9    10     1
    27     9    95     1
    28     9    96     1
    29    10    11     1
    30    10    97     1
    31    10    98     1
    32    11    12     1
    33    11    99     1
    34    11   100     1
    35    12    13     1
    36    12   101     1
    37    12   102     1
    38    13    14     1
    39    13   103     1
    40    13   104     1
    41    14    15     1
    42    14   105     1
    43    14   106     1
    44    15    16     1
    45    15    17     1
    46    15   107     1
    47    16   108     1
    48    16   109     1
    49    16   110     1
    50    17    18     1
    51    18    19     1
    52    18    20     1
    53    18    21     1
    54    19   111     1
    55    19   112     1
    56    19   113     1
    57    20   114     1
    58    20   115     1
    59    20   116     1
    60    21    22     1
    61    22    23     1
    62    22    64     1
    63    22   117     1
    64    23    24     2
    65    23    25     1
    66    25    26     1
    67    26    27     1
    68    26    48     1
    69    26   118     1
    70    27    28     1
    71    27   119     1
    72    27   120     1
    73    28    29     1
    74    28    30     1
    75    28    50     1
    76    29   121     1
    77    30    31     1
    78    30    40     1
    79    30   122     1
    80    31    32     1
    81    32    33     2
    82    32    34     1
    83    34    35     1
    84    34    39     2
    85    35    36     2
    86    35   123     1
    87    36    37     1
    88    36   124     1
    89    37    38     2
    90    37   125     1
    91    38    39     1
    92    38   126     1
    93    39   127     1
    94    40    41     1
    95    40    59     1
    96    40   128     1
    97    41    42     1
    98    41    43     1
    99    41    53     1
   100    42   129     1
   101    42   130     1
   102    42   131     1
   103    43    44     2
   104    43    45     1
   105    45    46     1
   106    45    47     1
   107    45   132     1
   108    46   133     1
   109    47    48     2
   110    47    50     1
   111    48    49     1
   112    49   134     1
   113    49   135     1
   114    49   136     1
   115    50    51     1
   116    50    52     1
   117    51   137     1
   118    51   138     1
   119    51   139     1
   120    52   140     1
   121    52   141     1
   122    52   142     1
   123    53    54     1
   124    53    55     1
   125    53   143     1
   126    54   144     1
   127    55    56     1
   128    55   145     1
   129    55   146     1
   130    56    57     1
   131    56    59     1
   132    56   147     1
   133    57    58     1
   134    58    59     1
   135    58   148     1
   136    58   149     1
   137    59    60     1
   138    60    61     1
   139    61    62     1
   140    61    63     2
   141    62   150     1
   142    62   151     1
   143    62   152     1
   144    64    65     1
   145    64    72     1
   146    64   153     1
   147    65    66     1
   148    65   154     1
   149    66    67     2
   150    66    68     1
   151    68    69     1
   152    68    70     1
   153    68    71     1
   154    69   155     1
   155    69   156     1
   156    69   157     1
   157    70   158     1
   158    70   159     1
   159    70   160     1
   160    71   161     1
   161    71   162     1
   162    71   163     1
   163    72    73     1
   164    72    77     2
   165    73    74     2
   166    73   164     1
   167    74    75     1
   168    74   165     1
   169    75    76     2
   170    75   166     1
   171    76    77     1
   172    76   167     1
   173    77   168     1
