@<TRIPOS>MOLECULE
PTX
126 132 1 0 0
SMALL
USER_CHARGES


@<TRIPOS>ATOM
      1 C          -8.4215    0.3598   -0.9179 C.3       1     PTL    0.0000
      2 O          -7.7833   -0.7278   -0.2845 O.3       1     PTL    0.0000
      3 C          -6.9221   -0.4002    0.7793 C.3       1     PTL    0.0000
      4 C          -7.4926    0.6956    1.6836 C.3       1     PTL    0.0000
      5 C          -6.7579   -1.6520    1.6473 C.3       1     PTL    0.0000
      6 O          -5.6899    0.0845    0.2859 O.3       1     PTX    0.0000
      7 C          -4.9243   -0.7311   -0.5707 C.3       1     PTX    0.0000
      8 C          -5.1606   -0.3204   -2.0290 C.3       1     PTX    0.0000
      9 C          -4.6696    1.0709   -2.3900 C.3       1     PTX    0.0000
     10 O          -5.2564    2.1095   -1.6407 O.3       1     PTX    0.0000
     11 C          -4.0106    2.4468   -1.0583 C.3       1     PTX    0.0000
     12 C          -3.2656    1.3890   -1.8754 C.3       1     PTX    0.0000
     13 O          -2.4425    1.8336   -2.9141 O.3       1     PTX    0.0000
     14 C          -2.6879    2.8939   -3.7311 C.2       1     PTX    0.0000
     15 C          -1.5487    3.0230   -4.7263 C.3       1     PTX    0.0000
     16 O          -3.6419    3.6359   -3.7018 O.2       1     PTX    0.0000
     17 C          -2.5525    0.2771   -1.0836 C.3       1     PTX    0.0000
     18 C          -1.1811    0.7229   -0.5081 C.3       1     PTX    0.0000
     19 O          -1.0267    2.1145   -0.6320 O.3       1     PTX    0.0000
     20 C          -0.9879    2.9796    0.4400 C.2       1     PTX    0.0000
     21 O          -1.0650    2.5470    1.5736 O.2       1     PTX    0.0000
     22 C          -0.8690    4.3254    0.2210 C.ar      1     PTX    0.0000
     23 C          -0.8344    5.2135    1.2343 C.ar      1     PTX    0.0000
     24 C          -0.7197    6.5296    0.9937 C.ar      1     PTX    0.0000
     25 C          -0.6375    6.9828   -0.2656 C.ar      1     PTX    0.0000
     26 C          -0.6696    6.1103   -1.2830 C.ar      1     PTX    0.0000
     27 C          -0.7832    4.7953   -1.0391 C.ar      1     PTX    0.0000
     28 C           0.1026    0.0447   -1.0570 C.3       1     PTX    0.0000
     29 O           0.3123    0.5653   -2.3421 O.3       1     PTX    0.0000
     30 C           1.2889    0.4590   -0.1628 C.3       1     PTX    0.0000
     31 C           1.2449   -0.2305    1.2154 C.3       1     PTX    0.0000
     32 O           2.5469   -0.3974    1.7394 O.3       1     PTX    0.0000
     33 C           3.1097   -1.6116    1.9902 C.2       1     PTX    0.0000
     34 O           2.6186   -2.7026    1.8092 O.2       1     PTX    0.0000
     35 C           4.5037   -1.4439    2.5930 C.3       1     PTX    0.0000
     36 O           4.4066   -1.0406    3.9473 O.3       1     PTX    0.0000
     37 C           5.4331   -0.4651    1.8552 C.3       1     PTX    0.0000
     38 N           6.7019   -0.4512    2.5987 N.am      1     PTX    0.0000
     39 C           7.9473   -0.1059    2.1485 C.2       1     PTX    0.0000
     40 O           8.8556   -0.5760    2.7941 O.2       1     PTX    0.0000
     41 C           8.1844    0.5611    0.9815 C.ar      1     PTX    0.0000
     42 C           7.3284    1.4722    0.4824 C.ar      1     PTX    0.0000
     43 C           7.5800    2.1119   -0.6707 C.ar      1     PTX    0.0000
     44 C           8.7097    1.8618   -1.3472 C.ar      1     PTX    0.0000
     45 C           9.5891    0.9806   -0.8503 C.ar      1     PTX    0.0000
     46 C           9.3308    0.3462    0.3044 C.ar      1     PTX    0.0000
     47 C           5.6054   -0.9553    0.4284 C.ar      1     PTX    0.0000
     48 C           6.2989   -2.0753    0.1537 C.ar      1     PTX    0.0000
     49 C           6.4386   -2.5120   -1.1076 C.ar      1     PTX    0.0000
     50 C           5.8788   -1.8336   -2.1202 C.ar      1     PTX    0.0000
     51 C           5.1820   -0.7171   -1.8631 C.ar      1     PTX    0.0000
     52 C           5.0506   -0.2871   -0.5992 C.ar      1     PTX    0.0000
     53 C           0.2593   -1.3892    1.3592 C.2       1     PTX    0.0000
     54 C          -0.0086   -1.7396    2.8117 C.3       1     PTX    0.0000
     55 C          -0.3832   -1.9055    0.2804 C.2       1     PTX    0.0000
     56 C          -1.6391   -2.7767    0.3321 C.3       1     PTX    0.0000
     57 O          -2.0315   -3.1266    1.6481 O.3       1     PTX    0.0000
     58 C          -2.9503   -4.1085    1.8561 C.2       1     PTX    0.0000
     59 C          -3.2146   -4.2511    3.3420 C.3       1     PTX    0.0000
     60 O          -3.4885   -4.7606    0.9920 O.2       1     PTX    0.0000
     61 C          -2.8256   -2.1401   -0.4419 C.2       1     PTX    0.0000
     62 O          -3.3005   -2.8060   -1.3400 O.2       1     PTX    0.0000
     63 C          -3.3989   -0.7058   -0.1874 C.3       1     PTX    0.0000
     64 C          -3.3075   -0.4086    1.3275 C.3       1     PTX    0.0000
     65 C           0.1389   -1.5082   -1.1059 C.3       1     PTX    0.0000
     66 C           1.5732   -2.1121   -1.2541 C.3       1     PTX    0.0000
     67 C          -0.4994   -2.1510   -2.3696 C.3       1     PTX    0.0000
     68 H          -8.8782   -0.0177   -1.8600 H         1     PTL    0.0000
     69 H          -9.2431    0.7534   -0.2808 H         1     PTL    0.0000
     70 H          -7.6975    1.1613   -1.1748 H         1     PTL    0.0000
     71 H          -6.8487    0.8401    2.5813 H         1     PTL    0.0000
     72 H          -8.5140    0.4424    2.0482 H         1     PTL    0.0000
     73 H          -7.5335    1.6895    1.1844 H         1     PTL    0.0000
     74 H          -6.4219   -2.5532    1.0913 H         1     PTL    0.0000
     75 H          -6.0507   -1.4867    2.4896 H         1     PTL    0.0000
     76 H          -7.7335   -1.9353    2.1047 H         1     PTL    0.0000
     77 H          -5.2971   -1.7713   -0.4520 H         1     PTX    0.0000
     78 H          -4.6352   -1.0352   -2.7046 H         1     PTX    0.0000
     79 H          -6.2330   -0.4073   -2.3103 H         1     PTX    0.0000
     80 H          -4.8242    1.2789   -3.4732 H         1     PTX    0.0000
     81 H          -3.7478    3.5078   -1.2416 H         1     PTX    0.0000
     82 H          -4.0393    2.2318    0.0305 H         1     PTX    0.0000
     83 H          -0.5700    3.0902   -4.1992 H         1     PTX    0.0000
     84 H          -1.5329    2.1416   -5.4066 H         1     PTX    0.0000
     85 H          -1.6674    3.9395   -5.3471 H         1     PTX    0.0000
     86 H          -2.3008   -0.3332   -1.9749 H         1     PTX    0.0000
     87 H          -1.1968    0.4855    0.5635 H         1     PTX    0.0000
     88 H          -0.8991    4.9028    2.2902 H         1     PTX    0.0000
     89 H          -0.6934    7.2445    1.8336 H         1     PTX    0.0000
     90 H          -0.5439    8.0636   -0.4630 H         1     PTX    0.0000
     91 H          -0.6017    6.4758   -2.3217 H         1     PTX    0.0000
     92 H          -0.8021    4.1244   -1.9128 H         1     PTX    0.0000
     93 H           0.2387    1.5241   -2.3030 H         1     PTX    0.0000
     94 H           1.3528    1.5642   -0.0404 H         1     PTX    0.0000
     95 H           2.2396    0.2422   -0.6944 H         1     PTX    0.0000
     96 H           0.7813    0.5437    1.8832 H         1     PTX    0.0000
     97 H           4.9766   -2.4536    2.6253 H         1     PTX    0.0000
     98 H           4.1271   -1.7717    4.5023 H         1     PTX    0.0000
     99 H           4.9660    0.5436    1.9193 H         1     PTX    0.0000
    100 H           6.6832   -0.8574    3.5338 H         1     PTX    0.0000
    101 H           6.4125    1.7606    1.0168 H         1     PTX    0.0000
    102 H           6.8648    2.8578   -1.0568 H         1     PTX    0.0000
    103 H           8.9210    2.3876   -2.2930 H         1     PTX    0.0000
    104 H          10.5262    0.7770   -1.3957 H         1     PTX    0.0000
    105 H          10.0870   -0.3754    0.6576 H         1     PTX    0.0000
    106 H           6.7651   -2.6516    0.9696 H         1     PTX    0.0000
    107 H           7.0125   -3.4313   -1.3125 H         1     PTX    0.0000
    108 H           5.9904   -2.1913   -3.1572 H         1     PTX    0.0000
    109 H           4.7180   -0.1527   -2.6891 H         1     PTX    0.0000
    110 H           4.4786    0.6351   -0.4088 H         1     PTX    0.0000
    111 H          -0.9382   -1.2737    3.2011 H         1     PTX    0.0000
    112 H          -0.0273   -2.8382    2.9784 H         1     PTX    0.0000
    113 H           0.8042   -1.3779    3.4791 H         1     PTX    0.0000
    114 H          -1.3402   -3.7279   -0.1699 H         1     PTX    0.0000
    115 H          -2.2758   -4.5140    3.8802 H         1     PTX    0.0000
    116 H          -3.6160   -3.2972    3.7539 H         1     PTX    0.0000
    117 H          -3.9624   -5.0529    3.5350 H         1     PTX    0.0000
    118 H          -3.5665    0.6455    1.5691 H         1     PTX    0.0000
    119 H          -3.9723   -1.0793    1.9126 H         1     PTX    0.0000
    120 H          -2.3148   -0.5695    1.7781 H         1     PTX    0.0000
    121 H           2.0725   -1.7762   -2.1915 H         1     PTX    0.0000
    122 H           2.2873   -1.8790   -0.4457 H         1     PTX    0.0000
    123 H           1.5492   -3.2257   -1.2641 H         1     PTX    0.0000
    124 H           0.0560   -1.8666   -3.2919 H         1     PTX    0.0000
    125 H          -0.4869   -3.2632   -2.3257 H         1     PTX    0.0000
    126 H          -1.5364   -1.8880   -2.6208 H         1     PTX    0.0000
@<TRIPOS>BOND
     1     1     2     1
     2     1    68     1
     3     1    69     1
     4     1    70     1
     5     2     3     1
     6     3     4     1
     7     3     5     1
     8     3     6     1
     9     4    71     1
    10     4    72     1
    11     4    73     1
    12     5    74     1
    13     5    75     1
    14     5    76     1
    15     6     7     1
    16     7     8     1
    17     7    63     1
    18     7    77     1
    19     8     9     1
    20     8    78     1
    21     8    79     1
    22     9    10     1
    23     9    12     1
    24     9    80     1
    25    10    11     1
    26    11    12     1
    27    11    81     1
    28    11    82     1
    29    12    13     1
    30    12    17     1
    31    13    14     1
    32    14    15     1
    33    14    16     2
    34    15    83     1
    35    15    84     1
    36    15    85     1
    37    17    18     1
    38    17    63     1
    39    17    86     1
    40    18    19     1
    41    18    28     1
    42    18    87     1
    43    19    20     1
    44    20    21     2
    45    20    22     1
    46    22    23     1
    47    22    27     2
    48    23    24     2
    49    23    88     1
    50    24    25     1
    51    24    89     1
    52    25    26     2
    53    25    90     1
    54    26    27     1
    55    26    91     1
    56    27    92     1
    57    28    29     1
    58    28    30     1
    59    28    65     1
    60    29    93     1
    61    30    31     1
    62    30    94     1
    63    30    95     1
    64    31    32     1
    65    31    53     1
    66    31    96     1
    67    32    33     1
    68    33    34     2
    69    33    35     1
    70    35    36     1
    71    35    37     1
    72    35    97     1
    73    36    98     1
    74    37    38     1
    75    37    47     1
    76    37    99     1
    77    38    39     1
    78    38   100     1
    79    39    40     2
    80    39    41     1
    81    41    42     1
    82    41    46     2
    83    42    43     2
    84    42   101     1
    85    43    44     1
    86    43   102     1
    87    44    45     2
    88    44   103     1
    89    45    46     1
    90    45   104     1
    91    46   105     1
    92    47    48     1
    93    47    52     2
    94    48    49     2
    95    48   106     1
    96    49    50     1
    97    49   107     1
    98    50    51     2
    99    50   108     1
   100    51    52     1
   101    51   109     1
   102    52   110     1
   103    53    54     1
   104    53    55     2
   105    54   111     1
   106    54   112     1
   107    54   113     1
   108    55    56     1
   109    55    65     1
   110    56    57     1
   111    56    61     1
   112    56   114     1
   113    57    58     1
   114    58    59     1
   115    58    60     2
   116    59   115     1
   117    59   116     1
   118    59   117     1
   119    61    62     2
   120    61    63     1
   121    63    64     1
   122    64   118     1
   123    64   119     1
   124    64   120     1
   125    65    66     1
   126    65    67     1
   127    66   121     1
   128    66   122     1
   129    66   123     1
   130    67   124     1
   131    67   125     1
   132    67   126     1
