@<TRIPOS>MOLECULE
SN3 
107 111 0 0 0
SMALL
USER_CHARGES
#CGenFF output mol2 file
@<TRIPOS>ATOM
1	N1     4.5400    -7.6330    -1.0360	N.2	1	SNL1    -0.7850
2	N2     2.7850    -6.4140    -3.6950	N.pl3	1	SNL1     0.0600
3	C1     5.0210    -5.2180     1.5030	C.2	1	SNL1     0.3060
4	C2     5.6310    -6.0210     2.3950	C.2	1	SNL1    -0.1110
5	C3     5.9270    -7.2980     2.1180	C.2	1	SNL1    -0.1030
6	C4     5.5650    -7.8190     0.9390	C.2	1	SNL1    -0.1270
7	C5     4.8900    -7.0710     0.0490	C.2	1	SNL1     0.4400
8	C6     3.8880    -6.9670    -1.8850	C.2	1	SNL1     0.0930
9	C7     3.5500    -5.6900    -1.6870	C.2	1	SNL1     0.2660
10	C8     3.9040    -5.0670    -0.5600	C.2	1	SNL1    -0.0980
11	C9     4.6050    -5.7800     0.3440	C.2	1	SNL1    -0.0960
12	C10     2.7850    -5.1890    -2.8700	C.3	1	SNL1    -0.2300
13	C11     3.4100    -7.3360    -3.0850	C.2	1	SNL1     0.0770
14	C12     3.5040    -8.5260    -3.6930	C.2	1	SNL1    -0.1150
15	C13     2.9430    -8.6800    -4.9090	C.2	1	SNL1     0.0890
16	C14     2.2990    -7.6500    -5.4910	C.2	1	SNL1    -0.1470
17	C15     1.6750    -7.8710    -6.8440	C.3	1	SNL1     0.0160
18	C16     3.0640    -9.8090    -7.1540	C.2	1	SNL1     0.5880
19	C17     2.9820   -10.0040    -5.6400	C.3	1	SNL1     0.2480
20	C18     1.7690   -10.8890    -5.3260	C.3	1	SNL1    -0.2890
21	C19     1.5650   -11.1790    -3.8320	C.3	1	SNL1    -0.2730
22	C20     2.2240    -6.4610    -4.8250	C.2	1	SNL1     0.3290
23	O1     4.6980    -3.9300     1.8480	O.3	1	SNL1    -0.4260
24	O2     2.4360    -8.7230    -7.6720	O.3	1	SNL1    -0.1730
25	O3     3.6970   -10.6050    -7.8160	O.co2	1	SNL1    -0.6410
26	O4     4.1620   -10.7270    -5.2950	O.3	1	SNL1    -0.5620
27	O5     1.6420    -5.5040    -5.2920	O.2	1	SNL1    -0.4210
28	H1     5.9070    -5.6210     3.3840	H	1	SNL1     0.1150
29	H2     6.4500    -7.9210     2.8630	H	1	SNL1     0.1150
30	H3     5.8040    -8.8750     0.7250	H	1	SNL1     0.1150
31	H4     3.6170    -4.0130    -0.4290	H	1	SNL1     0.1260
32	H5     3.3290    -4.3530    -3.3660	H	1	SNL1     0.0900
33	H6     1.7540    -4.8870    -2.5730	H	1	SNL1     0.0900
34	H7     4.0240    -9.3580    -3.1940	H	1	SNL1     0.2310
35	H8     0.6460    -8.2830    -6.7340	H	1	SNL1     0.0900
36	H9     1.5900    -6.9140    -7.4070	H	1	SNL1     0.0900
37	H10     4.4480   -11.2360    -6.0600	H	1	SNL1     0.3850
38	H11     0.8400   -10.4130    -5.7180	H	1	SNL1     0.0900
39	H12     1.8790   -11.8610    -5.8650	H	1	SNL1     0.0900
40	H13     0.7070   -11.8730    -3.6780	H	1	SNL1     0.0900
41	H14     2.4640   -11.6570    -3.3800	H	1	SNL1     0.0900
42	H15     1.3400   -10.2510    -3.2600	H	1	SNL1     0.0900
43	C21   -11.3330    14.0090     1.7430	C.3	1	SNL1    -0.2730
44	C22   -10.6820    12.8310     2.4800	C.3	1	SNL1    -0.1770
45	C23    -9.4980    12.2480     1.6940	C.3	1	SNL1    -0.1810
46	C24    -8.8400    11.0710     2.4330	C.3	1	SNL1    -0.1790
47	C25    -7.6590    10.4830     1.6420	C.3	1	SNL1    -0.1800
48	C26    -6.9930     9.3140     2.3860	C.3	1	SNL1    -0.1800
49	C27    -5.8210     8.7190     1.5890	C.3	1	SNL1    -0.1800
50	C28    -5.1440     7.5600     2.3390	C.3	1	SNL1    -0.1800
51	C29    -3.9840     6.9530     1.5340	C.3	1	SNL1    -0.1800
52	C30    -3.2930     5.8080     2.2920	C.3	1	SNL1    -0.1800
53	C31    -2.1480     5.1870     1.4760	C.3	1	SNL1    -0.1800
54	C32    -1.4420     4.0570     2.2420	C.3	1	SNL1    -0.1800
55	C33    -0.3150     3.4180     1.4140	C.3	1	SNL1    -0.1800
56	C34     0.4100     2.3050     2.1880	C.3	1	SNL1    -0.1800
57	C35     1.5130     1.6450     1.3460	C.3	1	SNL1    -0.1800
58	C36     2.2580     0.5500     2.1270	C.3	1	SNL1    -0.1800
59	C37     3.3360    -0.1330     1.2710	C.3	1	SNL1    -0.1800
60	C38     4.0950    -1.2060     2.0550	C.3	1	SNL1     0.0360
61	C39     5.6960    -2.9430     1.7060	C.3	1	SNL1     0.3830
62	C40     6.7460    -3.3090     0.6560	C.3	1	SNL1    -0.2740
63	C41     6.3790    -2.6700     3.0420	C.3	1	SNL1    -0.2740
64	O6     5.0370    -1.8010     1.1960	O.3	1	SNL1    -0.4030
65	H16   -12.1910    14.4200     2.3240	H	1	SNL1     0.0900
66	H17   -10.6040    14.8360     1.5850	H	1	SNL1     0.0900
67	H18   -11.7180    13.6950     0.7460	H	1	SNL1     0.0900
68	H19   -11.4480    12.0350     2.6480	H	1	SNL1     0.0900
69	H20   -10.3330    13.1740     3.4840	H	1	SNL1     0.0900
70	H21    -8.7390    13.0480     1.5230	H	1	SNL1     0.0900
71	H22    -9.8520    11.9050     0.6930	H	1	SNL1     0.0900
72	H23    -9.6000    10.2730     2.6090	H	1	SNL1     0.0900
73	H24    -8.4810    11.4160     3.4310	H	1	SNL1     0.0900
74	H25    -6.9020    11.2830     1.4590	H	1	SNL1     0.0900
75	H26    -8.0200    10.1310     0.6470	H	1	SNL1     0.0900
76	H27    -7.7510     8.5180     2.5770	H	1	SNL1     0.0900
77	H28    -6.6240     9.6690     3.3770	H	1	SNL1     0.0900
78	H29    -5.0680     9.5170     1.3870	H	1	SNL1     0.0900
79	H30    -6.1930     8.3540     0.6020	H	1	SNL1     0.0900
80	H31    -5.8990     6.7660     2.5530	H	1	SNL1     0.0900
81	H32    -4.7610     7.9290     3.3200	H	1	SNL1     0.0900
82	H33    -3.2350     7.7490     1.3070	H	1	SNL1     0.0900
83	H34    -4.3710     6.5720     0.5590	H	1	SNL1     0.0900
84	H35    -4.0440     5.0190     2.5340	H	1	SNL1     0.0900
85	H36    -2.8920     6.1950     3.2590	H	1	SNL1     0.0900
86	H37    -1.4050     5.9780     1.2190	H	1	SNL1     0.0900
87	H38    -2.5550     4.7860     0.5170	H	1	SNL1     0.0900
88	H39    -2.1870     3.2730     2.5170	H	1	SNL1     0.0900
89	H40    -1.0190     4.4630     3.1920	H	1	SNL1     0.0900
90	H41     0.4210     4.2030     1.1220	H	1	SNL1     0.0900
91	H42    -0.7440     2.9960     0.4740	H	1	SNL1     0.0900
92	H43    -0.3290     1.5290     2.5000	H	1	SNL1     0.0900
93	H44     0.8570     2.7330     3.1170	H	1	SNL1     0.0900
94	H45     2.2430     2.4220     1.0150	H	1	SNL1     0.0900
95	H46     1.0600     1.2010     0.4280	H	1	SNL1     0.0900
96	H47     1.5270    -0.2160     2.4800	H	1	SNL1     0.0900
97	H48     2.7330     1.0000     3.0320	H	1	SNL1     0.0900
98	H49     4.0580     0.6320     0.8990	H	1	SNL1     0.0900
99	H50     2.8560    -0.6000     0.3770	H	1	SNL1     0.0900
100	H51     3.3770    -1.9700     2.4290	H	1	SNL1     0.0900
101	H52     4.6170    -0.7270     2.9140	H	1	SNL1     0.0900
102	H53     7.3480    -4.2000     0.9410	H	1	SNL1     0.0900
103	H54     7.4700    -2.4720     0.5210	H	1	SNL1     0.0900
104	H55     6.2910    -3.5000    -0.3420	H	1	SNL1     0.0900
105	H56     7.0000    -1.7460     2.9950	H	1	SNL1     0.0900
106	H57     5.6540    -2.5620     3.8790	H	1	SNL1     0.0900
107	H58     7.0600    -3.5030     3.3220	H	1	SNL1     0.0900
@<TRIPOS>BOND
1	1	8	2
2	2	13	1
3	2	22	1
4	3	4	1
5	3	11	2
6	4	5	2
7	4	28	1
8	5	6	1
9	5	29	1
10	6	7	2
11	6	30	1
12	1	7	1
13	7	11	1
14	8	9	1
15	8	13	1
16	9	10	2
17	9	12	1
18	10	11	1
19	10	31	1
20	2	12	1
21	12	32	1
22	12	33	1
23	13	14	2
24	14	15	1
25	14	34	1
26	15	16	2
27	15	19	1
28	16	17	1
29	16	22	1
30	17	24	1
31	17	35	1
32	17	36	1
33	18	19	1
34	18	25	2
35	19	20	1
36	19	26	1
37	20	21	1
38	20	38	1
39	20	39	1
40	21	40	1
41	21	41	1
42	21	42	1
43	22	27	2
44	3	23	1
45	18	24	1
46	26	37	1
47	43	44	1
48	43	65	1
49	43	66	1
50	43	67	1
51	44	45	1
52	44	68	1
53	44	69	1
54	45	46	1
55	45	70	1
56	45	71	1
57	46	47	1
58	46	72	1
59	46	73	1
60	47	48	1
61	47	74	1
62	47	75	1
63	48	49	1
64	48	76	1
65	48	77	1
66	49	50	1
67	49	78	1
68	49	79	1
69	50	51	1
70	50	80	1
71	50	81	1
72	51	52	1
73	51	82	1
74	51	83	1
75	52	53	1
76	52	84	1
77	52	85	1
78	53	54	1
79	53	86	1
80	53	87	1
81	54	55	1
82	54	88	1
83	54	89	1
84	55	56	1
85	55	90	1
86	55	91	1
87	56	57	1
88	56	92	1
89	56	93	1
90	57	58	1
91	57	94	1
92	57	95	1
93	58	59	1
94	58	96	1
95	58	97	1
96	59	60	1
97	59	98	1
98	59	99	1
99	60	64	1
100	60	100	1
101	60	101	1
102	23	61	1
103	61	62	1
104	61	63	1
105	62	102	1
106	62	103	1
107	62	104	1
108	63	105	1
109	63	106	1
110	63	107	1
111	61	64	1
