@<TRIPOS>MOLECULE
DTX 
168 173 0 0 0
SMALL
USER_CHARGES
#CGenFF output mol2 file
@<TRIPOS>ATOM
1	C1    -2.1880    16.7220    -0.0110	C.3	1	DTX1    -0.2730
2	C2    -2.7540    15.3520    -0.4090	C.3	1	DTX1    -0.1770
3	C3    -2.0840    14.2080     0.3690	C.3	1	DTX1    -0.1810
4	C4    -2.6470    12.8340    -0.0300	C.3	1	DTX1    -0.1790
5	C5    -1.9760    11.6890     0.7450	C.3	1	DTX1    -0.1800
6	C6    -2.5340    10.3160     0.3370	C.3	1	DTX1    -0.1800
7	C7    -1.8610     9.1660     1.1050	C.3	1	DTX1    -0.1800
8	C8    -2.4110     7.7950     0.6780	C.3	1	DTX1    -0.1800
9	C9    -1.7330     6.6390     1.4320	C.3	1	DTX1    -0.1800
10	C10    -2.2720     5.2720     0.9800	C.3	1	DTX1    -0.1800
11	C11    -1.5870     4.1060     1.7120	C.3	1	DTX1    -0.1800
12	C12    -2.1080     2.7450     1.2240	C.3	1	DTX1    -0.1570
13	C13    -1.4140     1.5660     1.9280	C.3	1	DTX1    -0.1860
14	C14    -1.9130     0.2120     1.3900	C.3	1	DTX1    -0.2190
15	C15    -1.2530    -1.0040     2.0550	C.3	1	DTX1     0.1670
16	C16     0.2170    -1.2080     1.7040	C.3	1	DTX1    -0.2680
17	C17    -2.0460    -3.0140     0.8660	C.3	1	DTX1     0.4020
18	C18    -3.2800    -3.9040     1.0750	C.3	1	DTX1    -0.2690
19	C19    -2.2660    -2.2790    -0.4520	C.3	1	DTX1    -0.2690
20	O1    -2.0470    -2.1640     2.0000	O.3	1	DTX1    -0.4340
21	H1    -2.6830    17.5400    -0.5820	H	1	DTX1     0.0900
22	H2    -2.3460    16.9220     1.0740	H	1	DTX1     0.0900
23	H3    -1.0940    16.7790    -0.2150	H	1	DTX1     0.0900
24	H4    -2.6040    15.1970    -1.5040	H	1	DTX1     0.0900
25	H5    -3.8540    15.3400    -0.2190	H	1	DTX1     0.0900
26	H6    -2.2370    14.3670     1.4630	H	1	DTX1     0.0900
27	H7    -0.9840    14.2270     0.1790	H	1	DTX1     0.0900
28	H8    -2.4950    12.6780    -1.1250	H	1	DTX1     0.0900
29	H9    -3.7460    12.8160     0.1600	H	1	DTX1     0.0900
30	H10    -2.1320    11.8410     1.8400	H	1	DTX1     0.0900
31	H11    -0.8760    11.7110     0.5580	H	1	DTX1     0.0900
32	H12    -2.3800    10.1670    -0.7590	H	1	DTX1     0.0900
33	H13    -3.6340    10.2920     0.5250	H	1	DTX1     0.0900
34	H14    -2.0220     9.3070     2.2000	H	1	DTX1     0.0900
35	H15    -0.7600     9.1950     0.9220	H	1	DTX1     0.0900
36	H16    -2.2540     7.6620    -0.4180	H	1	DTX1     0.0900
37	H17    -3.5110     7.7640     0.8650	H	1	DTX1     0.0900
38	H18    -1.9010     6.7600     2.5290	H	1	DTX1     0.0900
39	H19    -0.6320     6.6790     1.2560	H	1	DTX1     0.0900
40	H20    -2.1110     5.1600    -0.1190	H	1	DTX1     0.0900
41	H21    -3.3720     5.2280     1.1620	H	1	DTX1     0.0900
42	H22    -1.7630     4.2000     2.8100	H	1	DTX1     0.0900
43	H23    -0.4850     4.1610     1.5440	H	1	DTX1     0.0900
44	H24    -1.9410     2.6650     0.1230	H	1	DTX1     0.0900
45	H25    -3.2090     2.6850     1.3990	H	1	DTX1     0.0900
46	H26    -1.6030     1.6310     3.0260	H	1	DTX1     0.0900
47	H27    -0.3130     1.6530     1.7710	H	1	DTX1     0.0900
48	H28    -1.7260     0.2090     0.2940	H	1	DTX1     0.0900
49	H29    -3.0180     0.1630     1.5420	H	1	DTX1     0.0900
50	H30    -1.2590    -0.7560     3.1510	H	1	DTX1     0.0900
51	H31     0.6390    -2.0890     2.2360	H	1	DTX1     0.0900
52	H32     0.8360    -0.3380     2.0170	H	1	DTX1     0.0900
53	H33     0.3780    -1.3250     0.6120	H	1	DTX1     0.0900
54	H34    -3.4390    -4.5980     0.2210	H	1	DTX1     0.0900
55	H35    -4.2100    -3.2990     1.1710	H	1	DTX1     0.0900
56	H36    -3.1930    -4.5170     2.0020	H	1	DTX1     0.0900
57	H37    -3.1830    -1.6490    -0.3980	H	1	DTX1     0.0900
58	H38    -1.4380    -1.6110    -0.7630	H	1	DTX1     0.0900
59	H39    -2.4460    -2.9860    -1.2910	H	1	DTX1     0.0900
60	N     0.3850    -5.3230    -2.1820	N.pl3	1	DTX1    -0.5470
61	C20    -0.0510    -4.0540    -0.1170	C.3	1	DTX1     0.1830
62	C21     1.3990    -4.2020     0.3820	C.2	1	DTX1     0.8500
63	C22     3.6000    -3.2740    -0.1570	C.3	1	DTX1     0.2720
64	C23     3.8910    -1.8320     0.2990	C.3	1	DTX1    -0.2120
65	C24     5.1970    -1.7450     1.1170	C.3	1	DTX1     0.1860
66	C25     6.3880    -1.9500     0.1460	C.3	1	DTX1     0.1330
67	C26     6.1590    -0.9600    -2.0920	C.2	1	DTX1     0.4590
68	C27     6.2530     0.1540    -2.8810	C.2	1	DTX1     0.0860
69	C28     6.0070     0.1120    -4.2060	C.2	1	DTX1    -0.1100
70	C29     6.1060     1.2190    -4.9600	C.2	1	DTX1    -0.1140
71	C30     6.4530     2.3880    -4.4040	C.2	1	DTX1    -0.1150
72	C31     6.6990     2.4440    -3.0870	C.2	1	DTX1    -0.1140
73	C32     6.5980     1.3370    -2.3360	C.2	1	DTX1    -0.1100
74	C33     7.7860    -2.1730     0.7750	C.3	1	DTX1    -0.0740
75	C34     8.3240    -3.6500     0.7550	C.3	1	DTX1     0.0810
76	C35     7.9520    -4.4700    -0.5020	C.3	1	DTX1    -0.2630
77	C36     7.7470    -4.4220     1.9850	C.2	1	DTX1     0.3310
78	C37     6.3160    -4.9970     2.0960	C.3	1	DTX1     0.3760
79	C38     5.1940    -4.1080     1.5920	C.2	1	DTX1    -0.0970
80	C39     4.3780    -4.3830     0.5450	C.2	1	DTX1    -0.1580
81	C40     4.2990    -5.7170    -0.1650	C.3	1	DTX1    -0.2650
82	C41     5.0460    -2.7540     2.2870	C.3	1	DTX1     0.0160
83	C42     3.6360    -2.7240     2.9550	C.3	1	DTX1    -0.2690
84	C43     5.9080    -2.4870     3.5560	C.3	1	DTX1    -0.2690
85	C44     9.8780    -3.6870     0.8420	C.3	1	DTX1     0.1660
86	C45    10.4840    -2.5380     1.6410	C.3	1	DTX1    -0.2010
87	C46    10.1920    -1.1800     1.0260	C.3	1	DTX1     0.0150
88	C47     9.4170    -0.8760    -0.8230	C.3	1	DTX1    -0.1060
89	C48     8.7500    -0.9900     0.5510	C.3	1	DTX1     0.3660
90	C49     8.7050     1.4310     0.9700	C.2	1	DTX1     0.8850
91	C50     7.7560     2.4130     1.6310	C.3	1	DTX1    -0.3130
92	C51    -0.4580    -5.2640    -0.9790	C.3	1	DTX1     0.1360
93	C52     0.2350    -4.4720    -3.2440	C.2	1	DTX1     0.6380
94	C53     1.2580    -4.6740    -4.3660	C.3	1	DTX1    -0.0540
95	C54     2.6550    -4.3180    -3.8220	C.3	1	DTX1    -0.2730
96	C55     1.2250    -6.1440    -4.8270	C.3	1	DTX1    -0.2730
97	C56     0.9360    -3.7590    -5.5640	C.3	1	DTX1    -0.2730
98	C57    -0.3450    -6.5870    -0.2340	C.2	1	DTX1    -0.0400
99	C58     0.7850    -7.3190    -0.2430	C.2	1	DTX1    -0.1060
100	C59     0.8780    -8.4800     0.4230	C.2	1	DTX1    -0.1150
101	C60    -0.1710    -8.9430     1.1160	C.2	1	DTX1    -0.1150
102	C61    -1.3090    -8.2350     1.1320	C.2	1	DTX1    -0.1150
103	C62    -1.3880    -7.0750     0.4620	C.2	1	DTX1    -0.1060
104	O2    -0.9160    -3.8650     0.9830	O.3	1	DTX1    -0.5060
105	O3     1.7250    -4.8860     1.3250	O.co2	1	DTX1    -0.6230
106	O4     2.2230    -3.4540    -0.4020	O.3	1	DTX1    -0.4320
107	O5     5.3120    -0.4450     1.6300	O.3	1	DTX1    -0.4600
108	O6     6.4230    -0.8630    -0.7430	O.3	1	DTX1    -0.3100
109	O7     5.8450    -2.0300    -2.5760	O.co2	1	DTX1    -0.4960
110	O8     8.4420    -4.6200     2.9590	O.2	1	DTX1    -0.5150
111	O9     6.3540    -6.3210     1.5780	O.3	1	DTX1    -0.6120
112	O10    10.4630    -3.6900    -0.4430	O.3	1	DTX1    -0.6420
113	O11    10.7120    -1.0540    -0.2780	O.3	1	DTX1    -0.3430
114	O12     8.1770     0.1790     1.0580	O.3	1	DTX1    -0.4220
115	O13     9.7520     1.7470     0.4550	O.co2	1	DTX1    -0.6170
116	O14    -0.6240    -3.6260    -3.2680	O.2	1	DTX1    -0.5110
117	H40    -0.0500    -3.1400    -0.7430	H	1	DTX1     0.0900
118	H41     4.0490    -3.3230    -1.1840	H	1	DTX1     0.0900
119	H42     3.9080    -1.1460    -0.5790	H	1	DTX1     0.0900
120	H43     3.0430    -1.4140     0.8850	H	1	DTX1     0.0900
121	H44     5.4500     0.1660     0.9000	H	1	DTX1     0.2920
122	H45     6.1680    -2.8570    -0.4350	H	1	DTX1     0.0900
123	H46     5.7180    -0.8190    -4.7210	H	1	DTX1     0.1150
124	H47     5.9030     1.1690    -6.0430	H	1	DTX1     0.1150
125	H48     6.5350     3.2970    -5.0230	H	1	DTX1     0.1150
126	H49     6.9840     3.4030    -2.6220	H	1	DTX1     0.1150
127	H50     6.8100     1.4420    -1.2590	H	1	DTX1     0.1150
128	H51     7.6490    -1.9780     1.8570	H	1	DTX1     0.0900
129	H52     8.1630    -3.9160    -1.4440	H	1	DTX1     0.0900
130	H53     8.5040    -5.4370    -0.5350	H	1	DTX1     0.0900
131	H54     6.8870    -4.7570    -0.5520	H	1	DTX1     0.0900
132	H55     6.0840    -5.1570     3.1760	H	1	DTX1     0.0900
133	H56     6.8780    -6.8750     2.1620	H	1	DTX1     0.3640
134	H57     5.2070    -5.9540    -0.7580	H	1	DTX1     0.0900
135	H58     4.0770    -6.5420     0.5470	H	1	DTX1     0.0900
136	H59     3.4640    -5.7320    -0.8960	H	1	DTX1     0.0900
137	H60     3.4080    -1.7270     3.3950	H	1	DTX1     0.0900
138	H61     2.7900    -2.9690     2.2910	H	1	DTX1     0.0900
139	H62     3.5420    -3.4820     3.7660	H	1	DTX1     0.0900
140	H63     5.7420    -1.4570     3.9460	H	1	DTX1     0.0900
141	H64     5.6550    -3.1780     4.3910	H	1	DTX1     0.0900
142	H65     7.0010    -2.5960     3.4820	H	1	DTX1     0.0900
143	H66    10.2210    -4.6540     1.2820	H	1	DTX1     0.0900
144	H67    11.2680    -3.1690    -0.4490	H	1	DTX1     0.4000
145	H68    10.0840    -2.5460     2.6810	H	1	DTX1     0.0900
146	H69    11.5890    -2.6710     1.7230	H	1	DTX1     0.0900
147	H70    10.5910    -0.3590     1.6630	H	1	DTX1     0.0900
148	H71     9.3330     0.1000    -1.3430	H	1	DTX1     0.0900
149	H72     9.1680    -1.7070    -1.5140	H	1	DTX1     0.0900
150	H73     6.7540     2.3750     1.1460	H	1	DTX1     0.0900
151	H74     7.6430     2.1730     2.7130	H	1	DTX1     0.0900
152	H75     8.1400     3.4540     1.5450	H	1	DTX1     0.0900
153	H76    -1.5180    -5.1540    -1.3100	H	1	DTX1     0.0900
154	H77     1.1570    -5.9870    -2.1920	H	1	DTX1     0.2840
155	H78     3.4310    -4.4040    -4.6160	H	1	DTX1     0.0900
156	H79     2.6840    -3.2740    -3.4350	H	1	DTX1     0.0900
157	H80     2.9610    -4.9960    -2.9960	H	1	DTX1     0.0900
158	H81     1.9330    -6.3140    -5.6700	H	1	DTX1     0.0900
159	H82     0.2080    -6.4320    -5.1770	H	1	DTX1     0.0900
160	H83     1.5160    -6.8480    -4.0150	H	1	DTX1     0.0900
161	H84     0.9730    -2.6820    -5.2820	H	1	DTX1     0.0900
162	H85     1.6700    -3.9050    -6.3890	H	1	DTX1     0.0900
163	H86    -0.0750    -3.9730    -5.9800	H	1	DTX1     0.0900
164	H87     1.6720    -6.9800    -0.7960	H	1	DTX1     0.1150
165	H88     1.8200    -9.0560     0.4010	H	1	DTX1     0.1150
166	H89    -0.1000    -9.8970     1.6650	H	1	DTX1     0.1150
167	H90    -2.1810    -8.6080     1.6960	H	1	DTX1     0.1150
168	H91    -2.3380    -6.5210     0.4930	H	1	DTX1     0.1150
@<TRIPOS>BOND
1	1	2	1
2	1	21	1
3	1	22	1
4	1	23	1
5	2	3	1
6	2	24	1
7	2	25	1
8	3	4	1
9	3	26	1
10	3	27	1
11	4	5	1
12	4	28	1
13	4	29	1
14	5	6	1
15	5	30	1
16	5	31	1
17	6	7	1
18	6	32	1
19	6	33	1
20	7	8	1
21	7	34	1
22	7	35	1
23	8	9	1
24	8	36	1
25	8	37	1
26	9	10	1
27	9	38	1
28	9	39	1
29	10	11	1
30	10	40	1
31	10	41	1
32	11	12	1
33	11	42	1
34	11	43	1
35	12	13	1
36	12	44	1
37	12	45	1
38	13	14	1
39	13	46	1
40	13	47	1
41	14	15	1
42	14	48	1
43	14	49	1
44	15	16	1
45	15	20	1
46	15	50	1
47	16	51	1
48	16	52	1
49	16	53	1
50	17	18	1
51	17	19	1
52	17	104	1
53	18	54	1
54	18	55	1
55	18	56	1
56	19	57	1
57	19	58	1
58	19	59	1
59	17	20	1
60	60	93	1
61	60	154	1
62	61	62	1
63	61	92	1
64	61	117	1
65	62	105	2
66	62	106	1
67	63	64	1
68	63	80	1
69	63	118	1
70	64	65	1
71	64	119	1
72	64	120	1
73	65	66	1
74	65	82	1
75	65	107	1
76	66	74	1
77	66	108	1
78	66	122	1
79	67	68	1
80	67	109	2
81	68	69	1
82	68	73	2
83	69	70	2
84	69	123	1
85	70	71	1
86	70	124	1
87	71	72	2
88	71	125	1
89	72	73	1
90	72	126	1
91	73	127	1
92	74	75	1
93	74	89	1
94	74	128	1
95	75	76	1
96	75	77	1
97	75	85	1
98	76	129	1
99	76	130	1
100	76	131	1
101	77	78	1
102	77	110	2
103	78	79	1
104	78	111	1
105	78	132	1
106	79	80	2
107	79	82	1
108	80	81	1
109	81	134	1
110	81	135	1
111	81	136	1
112	82	83	1
113	82	84	1
114	83	137	1
115	83	138	1
116	83	139	1
117	84	140	1
118	84	141	1
119	84	142	1
120	85	86	1
121	85	112	1
122	85	143	1
123	86	87	1
124	86	145	1
125	86	146	1
126	87	89	1
127	87	113	1
128	87	147	1
129	88	89	1
130	88	148	1
131	88	149	1
132	89	114	1
133	90	91	1
134	90	115	2
135	91	150	1
136	91	151	1
137	91	152	1
138	60	92	1
139	92	98	1
140	92	153	1
141	93	94	1
142	93	116	2
143	94	95	1
144	94	96	1
145	94	97	1
146	95	155	1
147	95	156	1
148	95	157	1
149	96	158	1
150	96	159	1
151	96	160	1
152	97	161	1
153	97	162	1
154	97	163	1
155	98	99	1
156	98	103	2
157	99	100	2
158	99	164	1
159	100	101	1
160	100	165	1
161	101	102	2
162	101	166	1
163	102	103	1
164	102	167	1
165	103	168	1
166	61	104	1
167	63	106	1
168	107	121	1
169	67	108	1
170	111	133	1
171	112	144	1
172	88	113	1
173	90	114	1
