# created with PyMOL 2.5.4
@<TRIPOS>MOLECULE
DTX
168 173 2               
SMALL
USER_CHARGES
@<TRIPOS>ATOM
1	   C	-2.188	16.722	-0.011	C.3	1	DTL1	0.000	
2	   C	-2.754	15.352	-0.409	C.3	1	DTL1	0.000	
3	   C	-2.084	14.208	0.369	C.3	1	DTL1	0.000	
4	   C	-2.647	12.834	-0.030	C.3	1	DTL1	0.000	
5	   C	-1.976	11.689	0.745	C.3	1	DTL1	0.000	
6	   C	-2.534	10.316	0.337	C.3	1	DTL1	0.000	
7	   C	-1.861	9.166	1.105	C.3	1	DTL1	0.000	
8	   C	-2.411	7.795	0.678	C.3	1	DTL1	0.000	
9	   C	-1.733	6.639	1.432	C.3	1	DTL1	0.000	
10	   C	-2.272	5.272	0.980	C.3	1	DTL1	0.000	
11	   C	-1.587	4.106	1.712	C.3	1	DTL1	0.000	
12	   C	-2.108	2.745	1.224	C.3	1	DTL1	0.000	
13	   C	-1.414	1.566	1.928	C.3	1	DTL1	0.000	
14	   C	-1.913	0.212	1.390	C.3	1	DTL1	0.000	
15	   C	-1.253	-1.004	2.055	C.3	1	DTL1	0.000	
16	   C	0.217	-1.208	1.704	C.3	1	DTL1	0.000	
17	   C	-2.046	-3.014	0.866	C.3	1	DTL1	0.000	
18	   C	-3.280	-3.904	1.075	C.3	1	DTL1	0.000	
19	   C	-2.266	-2.279	-0.452	C.3	1	DTL1	0.000	
20	   O	-2.047	-2.164	2.000	O.3	1	DTL1	0.000	
21	   H	-2.683	17.540	-0.582	 H	1	DTL1	0.000	
22	   H	-2.346	16.922	1.074	 H	1	DTL1	0.000	
23	   H	-1.094	16.779	-0.215	 H	1	DTL1	0.000	
24	   H	-2.604	15.197	-1.504	 H	1	DTL1	0.000	
25	   H	-3.854	15.340	-0.219	 H	1	DTL1	0.000	
26	   H	-2.237	14.367	1.463	 H	1	DTL1	0.000	
27	   H	-0.984	14.227	0.179	 H	1	DTL1	0.000	
28	   H	-2.495	12.678	-1.125	 H	1	DTL1	0.000	
29	   H	-3.746	12.816	0.160	 H	1	DTL1	0.000	
30	   H	-2.132	11.841	1.840	 H	1	DTL1	0.000	
31	   H	-0.876	11.711	0.558	 H	1	DTL1	0.000	
32	   H	-2.380	10.167	-0.759	 H	1	DTL1	0.000	
33	   H	-3.634	10.292	0.525	 H	1	DTL1	0.000	
34	   H	-2.022	9.307	2.200	 H	1	DTL1	0.000	
35	   H	-0.760	9.195	0.922	 H	1	DTL1	0.000	
36	   H	-2.254	7.662	-0.418	 H	1	DTL1	0.000	
37	   H	-3.511	7.764	0.865	 H	1	DTL1	0.000	
38	   H	-1.901	6.760	2.529	 H	1	DTL1	0.000	
39	   H	-0.632	6.679	1.256	 H	1	DTL1	0.000	
40	   H	-2.111	5.160	-0.119	 H	1	DTL1	0.000	
41	   H	-3.372	5.228	1.162	 H	1	DTL1	0.000	
42	   H	-1.763	4.200	2.810	 H	1	DTL1	0.000	
43	   H	-0.485	4.161	1.544	 H	1	DTL1	0.000	
44	   H	-1.941	2.665	0.123	 H	1	DTL1	0.000	
45	   H	-3.209	2.685	1.399	 H	1	DTL1	0.000	
46	   H	-1.603	1.631	3.026	 H	1	DTL1	0.000	
47	   H	-0.313	1.653	1.771	 H	1	DTL1	0.000	
48	   H	-1.726	0.209	0.294	 H	1	DTL1	0.000	
49	   H	-3.018	0.163	1.542	 H	1	DTL1	0.000	
50	   H	-1.259	-0.756	3.151	 H	1	DTL1	0.000	
51	   H	0.639	-2.089	2.236	 H	1	DTL1	0.000	
52	   H	0.836	-0.338	2.017	 H	1	DTL1	0.000	
53	   H	0.378	-1.325	0.612	 H	1	DTL1	0.000	
54	   H	-3.439	-4.598	0.221	 H	1	DTL1	0.000	
55	   H	-4.210	-3.299	1.171	 H	1	DTL1	0.000	
56	   H	-3.193	-4.517	2.002	 H	1	DTL1	0.000	
57	   H	-3.183	-1.649	-0.398	 H	1	DTL1	0.000	
58	   H	-1.438	-1.611	-0.763	 H	1	DTL1	0.000	
59	   H	-2.446	-2.986	-1.291	 H	1	DTL1	0.000	
60	   N	0.385	-5.323	-2.182	N.pl3	2	DTX1	0.000	
61	   C	-0.051	-4.054	-0.117	C.3	2	DTX1	0.000	
62	   C	1.399	-4.202	0.382	C.2	2	DTX1	0.000	
63	   C	3.600	-3.274	-0.157	C.3	2	DTX1	0.000	
64	   C	3.891	-1.832	0.299	C.3	2	DTX1	0.000	
65	   C	5.197	-1.745	1.117	C.3	2	DTX1	0.000	
66	   C	6.388	-1.950	0.146	C.3	2	DTX1	0.000	
67	   C	6.159	-0.960	-2.092	C.2	2	DTX1	0.000	
68	   C	6.253	0.154	-2.881	C.2	2	DTX1	0.000	
69	   C	6.007	0.112	-4.206	C.2	2	DTX1	0.000	
70	   C	6.106	1.219	-4.960	C.2	2	DTX1	0.000	
71	   C	6.453	2.388	-4.404	C.2	2	DTX1	0.000	
72	   C	6.699	2.444	-3.087	C.2	2	DTX1	0.000	
73	   C	6.598	1.337	-2.336	C.2	2	DTX1	0.000	
74	   C	7.786	-2.173	0.775	C.3	2	DTX1	0.000	
75	   C	8.324	-3.650	0.755	C.3	2	DTX1	0.000	
76	   C	7.952	-4.470	-0.502	C.3	2	DTX1	0.000	
77	   C	7.747	-4.422	1.985	C.2	2	DTX1	0.000	
78	   C	6.316	-4.997	2.096	C.3	2	DTX1	0.000	
79	   C	5.194	-4.108	1.592	C.2	2	DTX1	0.000	
80	   C	4.378	-4.383	0.545	C.2	2	DTX1	0.000	
81	   C	4.299	-5.717	-0.165	C.3	2	DTX1	0.000	
82	   C	5.046	-2.754	2.287	C.3	2	DTX1	0.000	
83	   C	3.636	-2.724	2.955	C.3	2	DTX1	0.000	
84	   C	5.908	-2.487	3.556	C.3	2	DTX1	0.000	
85	   C	9.878	-3.687	0.842	C.3	2	DTX1	0.000	
86	   C	10.484	-2.538	1.641	C.3	2	DTX1	0.000	
87	   C	10.192	-1.180	1.026	C.3	2	DTX1	0.000	
88	   C	9.417	-0.876	-0.823	C.3	2	DTX1	0.000	
89	   C	8.750	-0.990	0.551	C.3	2	DTX1	0.000	
90	   C	8.705	1.431	0.970	C.2	2	DTX1	0.000	
91	   C	7.756	2.413	1.631	C.3	2	DTX1	0.000	
92	   C	-0.458	-5.264	-0.979	C.3	2	DTX1	0.000	
93	   C	0.235	-4.472	-3.244	C.2	2	DTX1	0.000	
94	   C	1.258	-4.674	-4.366	C.3	2	DTX1	0.000	
95	   C	2.655	-4.318	-3.822	C.3	2	DTX1	0.000	
96	   C	1.225	-6.144	-4.827	C.3	2	DTX1	0.000	
97	   C	0.936	-3.759	-5.564	C.3	2	DTX1	0.000	
98	   C	-0.345	-6.587	-0.234	C.2	2	DTX1	0.000	
99	   C	0.785	-7.319	-0.243	C.2	2	DTX1	0.000	
100	   C	0.878	-8.480	0.423	C.2	2	DTX1	0.000	
101	   C	-0.171	-8.943	1.116	C.2	2	DTX1	0.000	
102	   C	-1.309	-8.235	1.132	C.2	2	DTX1	0.000	
103	   C	-1.388	-7.075	0.462	C.2	2	DTX1	0.000	
104	   O	-0.916	-3.865	0.983	O.3	2	DTX1	0.000	
105	   O	1.725	-4.886	1.325	O.co2	2	DTX1	0.000	
106	   O	2.223	-3.454	-0.402	O.3	2	DTX1	0.000	
107	   O	5.312	-0.445	1.630	O.3	2	DTX1	0.000	
108	   O	6.423	-0.863	-0.743	O.3	2	DTX1	0.000	
109	   O	5.845	-2.030	-2.576	O.co2	2	DTX1	0.000	
110	   O	8.442	-4.620	2.959	O.2	2	DTX1	0.000	
111	   O	6.354	-6.321	1.578	O.3	2	DTX1	0.000	
112	   O	10.463	-3.690	-0.443	O.3	2	DTX1	0.000	
113	   O	10.712	-1.054	-0.278	O.3	2	DTX1	0.000	
114	   O	8.177	0.179	1.058	O.3	2	DTX1	0.000	
115	   O	9.752	1.747	0.455	O.co2	2	DTX1	0.000	
116	   O	-0.624	-3.626	-3.268	O.2	2	DTX1	0.000	
117	   H	-0.050	-3.140	-0.743	 H	2	DTX1	0.000	
118	   H	4.049	-3.323	-1.184	 H	2	DTX1	0.000	
119	   H	3.908	-1.146	-0.579	 H	2	DTX1	0.000	
120	   H	3.043	-1.414	0.885	 H	2	DTX1	0.000	
121	   H	5.450	0.166	0.900	 H	2	DTX1	0.000	
122	   H	6.168	-2.857	-0.435	 H	2	DTX1	0.000	
123	   H	5.718	-0.819	-4.721	 H	2	DTX1	0.000	
124	   H	5.903	1.169	-6.043	 H	2	DTX1	0.000	
125	   H	6.535	3.297	-5.023	 H	2	DTX1	0.000	
126	   H	6.984	3.403	-2.622	 H	2	DTX1	0.000	
127	   H	6.810	1.442	-1.259	 H	2	DTX1	0.000	
128	   H	7.649	-1.978	1.857	 H	2	DTX1	0.000	
129	   H	8.163	-3.916	-1.444	 H	2	DTX1	0.000	
130	   H	8.504	-5.437	-0.535	 H	2	DTX1	0.000	
131	   H	6.887	-4.757	-0.552	 H	2	DTX1	0.000	
132	   H	6.084	-5.157	3.176	 H	2	DTX1	0.000	
133	   H	6.878	-6.875	2.162	 H	2	DTX1	0.000	
134	   H	5.207	-5.954	-0.758	 H	2	DTX1	0.000	
135	   H	4.077	-6.542	0.547	 H	2	DTX1	0.000	
136	   H	3.464	-5.732	-0.896	 H	2	DTX1	0.000	
137	   H	3.408	-1.727	3.395	 H	2	DTX1	0.000	
138	   H	2.790	-2.969	2.291	 H	2	DTX1	0.000	
139	   H	3.542	-3.482	3.766	 H	2	DTX1	0.000	
140	   H	5.742	-1.457	3.946	 H	2	DTX1	0.000	
141	   H	5.655	-3.178	4.391	 H	2	DTX1	0.000	
142	   H	7.001	-2.596	3.482	 H	2	DTX1	0.000	
143	   H	10.221	-4.654	1.282	 H	2	DTX1	0.000	
144	   H	11.268	-3.169	-0.449	 H	2	DTX1	0.000	
145	   H	10.084	-2.546	2.681	 H	2	DTX1	0.000	
146	   H	11.589	-2.671	1.723	 H	2	DTX1	0.000	
147	   H	10.591	-0.359	1.663	 H	2	DTX1	0.000	
148	   H	9.333	0.100	-1.343	 H	2	DTX1	0.000	
149	   H	9.168	-1.707	-1.514	 H	2	DTX1	0.000	
150	   H	6.754	2.375	1.146	 H	2	DTX1	0.000	
151	   H	7.643	2.173	2.713	 H	2	DTX1	0.000	
152	   H	8.140	3.454	1.545	 H	2	DTX1	0.000	
153	   H	-1.518	-5.154	-1.310	 H	2	DTX1	0.000	
154	   H	1.157	-5.987	-2.192	 H	2	DTX1	0.000	
155	   H	3.431	-4.404	-4.616	 H	2	DTX1	0.000	
156	   H	2.684	-3.274	-3.435	 H	2	DTX1	0.000	
157	   H	2.961	-4.996	-2.996	 H	2	DTX1	0.000	
158	   H	1.933	-6.314	-5.670	 H	2	DTX1	0.000	
159	   H	0.208	-6.432	-5.177	 H	2	DTX1	0.000	
160	   H	1.516	-6.848	-4.015	 H	2	DTX1	0.000	
161	   H	0.973	-2.682	-5.282	 H	2	DTX1	0.000	
162	   H	1.670	-3.905	-6.389	 H	2	DTX1	0.000	
163	   H	-0.075	-3.973	-5.980	 H	2	DTX1	0.000	
164	   H	1.672	-6.980	-0.796	 H	2	DTX1	0.000	
165	   H	1.820	-9.056	0.401	 H	2	DTX1	0.000	
166	   H	-0.100	-9.897	1.665	 H	2	DTX1	0.000	
167	   H	-2.181	-8.608	1.696	 H	2	DTX1	0.000	
168	   H	-2.338	-6.521	0.493	 H	2	DTX1	0.000	
@<TRIPOS>BOND
1 1 2 1
2 1 21 1
3 1 22 1
4 1 23 1
5 2 3 1
6 2 24 1
7 2 25 1
8 3 4 1
9 3 26 1
10 3 27 1
11 4 5 1
12 4 28 1
13 4 29 1
14 5 6 1
15 5 30 1
16 5 31 1
17 6 7 1
18 6 32 1
19 6 33 1
20 7 8 1
21 7 34 1
22 7 35 1
23 8 9 1
24 8 36 1
25 8 37 1
26 9 10 1
27 9 38 1
28 9 39 1
29 10 11 1
30 10 40 1
31 10 41 1
32 11 12 1
33 11 42 1
34 11 43 1
35 12 13 1
36 12 44 1
37 12 45 1
38 13 14 1
39 13 46 1
40 13 47 1
41 14 15 1
42 14 48 1
43 14 49 1
44 15 16 1
45 15 20 1
46 15 50 1
47 16 51 1
48 16 52 1
49 16 53 1
50 17 18 1
51 17 19 1
52 17 104 1
53 18 54 1
54 18 55 1
55 18 56 1
56 19 57 1
57 19 58 1
58 19 59 1
59 17 20 1
60 60 93 1
61 60 154 1
62 61 62 1
63 61 92 1
64 61 117 1
65 62 105 2
66 62 106 1
67 63 64 1
68 63 80 1
69 63 118 1
70 64 65 1
71 64 119 1
72 64 120 1
73 65 66 1
74 65 82 1
75 65 107 1
76 66 74 1
77 66 108 1
78 66 122 1
79 67 68 1
80 67 109 2
81 68 69 1
82 68 73 2
83 69 70 2
84 69 123 1
85 70 71 1
86 70 124 1
87 71 72 2
88 71 125 1
89 72 73 1
90 72 126 1
91 73 127 1
92 74 75 1
93 74 89 1
94 74 128 1
95 75 76 1
96 75 77 1
97 75 85 1
98 76 129 1
99 76 130 1
100 76 131 1
101 77 78 1
102 77 110 2
103 78 79 1
104 78 111 1
105 78 132 1
106 79 80 2
107 79 82 1
108 80 81 1
109 81 134 1
110 81 135 1
111 81 136 1
112 82 83 1
113 82 84 1
114 83 137 1
115 83 138 1
116 83 139 1
117 84 140 1
118 84 141 1
119 84 142 1
120 85 86 1
121 85 112 1
122 85 143 1
123 86 87 1
124 86 145 1
125 86 146 1
126 87 89 1
127 87 113 1
128 87 147 1
129 88 89 1
130 88 148 1
131 88 149 1
132 89 114 1
133 90 91 1
134 90 115 2
135 91 150 1
136 91 151 1
137 91 152 1
138 60 92 1
139 92 98 1
140 92 153 1
141 93 94 1
142 93 116 2
143 94 95 1
144 94 96 1
145 94 97 1
146 95 155 1
147 95 156 1
148 95 157 1
149 96 158 1
150 96 159 1
151 96 160 1
152 97 161 1
153 97 162 1
154 97 163 1
155 98 99 1
156 98 103 2
157 99 100 2
158 99 164 1
159 100 101 1
160 100 165 1
161 101 102 2
162 101 166 1
163 102 103 1
164 102 167 1
165 103 168 1
166 61 104 1
167 63 106 1
168 107 121 1
169 67 108 1
170 111 133 1
171 112 144 1
172 88 113 1
173 90 114 1
@<TRIPOS>SUBSTRUCTURE
1	DTL1	1	GROUP	1 ****	DTL
2	DTX1	60	GROUP	1 ****	DTX
