@<TRIPOS>MOLECULE
FUL
88 91 1 0 0
SMALL
USER_CHARGES


@<TRIPOS>ATOM
      1 C          -7.6944   -2.2056   -2.4083 C.3       1     FUL    0.0000
      2 C          -6.6950   -2.4704   -1.2587 C.3       1     FUL    0.0000
      3 C          -6.7307   -1.3057   -0.2550 C.3       1     FUL    0.0000
      4 C          -6.1046   -0.0226   -0.8428 C.3       1     FUL    0.0000
      5 C          -4.6706   -0.2406   -1.3814 C.3       1     FUL    0.0000
      6 C          -3.9970    1.0004   -1.9556 C.ar      1     FUL    0.0000
      7 C          -4.0968    2.1801   -1.3147 C.ar      1     FUL    0.0000
      8 C          -3.5080    3.2922   -1.7766 C.ar      1     FUL    0.0000
      9 C          -2.7806    3.2675   -2.9029 C.ar      1     FUL    0.0000
     10 O          -2.1726    4.3837   -3.3866 O.3       1     FUL    0.0000
     11 C          -2.6624    2.0857   -3.5275 C.ar      1     FUL    0.0000
     12 C          -3.2451    0.9591   -3.0774 C.ar      1     FUL    0.0000
     13 C          -3.0117   -0.3171   -3.8596 C.3       1     FUL    0.0000
     14 C          -3.2815   -1.5919   -3.0468 C.3       1     FUL    0.0000
     15 C          -2.1032   -2.0290   -2.1471 C.3       1     FUL    0.0000
     16 C          -1.2825   -0.9361   -1.4403 C.3       1     FUL    0.0000
     17 C          -0.1592   -1.5334   -0.5746 C.3       1     FUL    0.0000
     18 C           0.6931   -0.4416    0.0935 C.3       1     FUL    0.0000
     19 C           1.7939   -1.0389    0.9851 C.3       1     FUL    0.0000
     20 C           2.6818    0.0488    1.6114 C.3       1     FUL    0.0000
     21 C           3.7622   -0.5504    2.5266 C.3       1     FUL    0.0000
     22 C           4.6863    0.5297    3.1139 C.3       1     FUL    0.0000
     23 C           5.7476   -0.0791    4.0430 C.3       1     FUL    0.0000
     24 S           6.8278    1.1176    4.7940 S.o       1     FUL    0.0000
     25 O           7.5475    0.6979    5.9877 O.2       1     FUL    0.0000
     26 C           7.7794    1.8939    3.5067 C.3       1     FUL    0.0000
     27 C           8.7491    2.9650    4.0335 C.3       1     FUL    0.0000
     28 C           9.5591    3.6113    2.8933 C.3       1     FUL    0.0000
     29 C          10.5117    4.6730    3.3563 C.3       1     FUL    0.0000
     30 F          11.3567    4.1666    4.2372 F         1     FUL    0.0000
     31 F           9.8463    5.6271    3.9838 F         1     FUL    0.0000
     32 C          11.2920    5.2855    2.2373 C.3       1     FUL    0.0000
     33 F          10.4996    5.8290    1.3535 F         1     FUL    0.0000
     34 F          12.1192    6.2107    2.6437 F         1     FUL    0.0000
     35 F          11.9916    4.3854    1.6010 F         1     FUL    0.0000
     36 C          -4.6567   -1.4133   -2.3812 C.3       1     FUL    0.0000
     37 C          -5.2263   -2.6598   -1.6962 C.3       1     FUL    0.0000
     38 C          -5.2374   -4.0022   -2.4356 C.3       1     FUL    0.0000
     39 C          -6.2671   -4.8372   -1.6431 C.3       1     FUL    0.0000
     40 C          -6.9434   -3.8651   -0.6652 C.3       1     FUL    0.0000
     41 O          -8.3093   -4.1544   -0.5088 O.3       1     FUL    0.0000
     42 H          -8.7284   -2.0883   -2.0129 H         1     FUL    0.0000
     43 H          -7.4851   -1.2769   -2.9779 H         1     FUL    0.0000
     44 H          -7.7269   -3.0317   -3.1508 H         1     FUL    0.0000
     45 H          -7.7805   -1.1175    0.0700 H         1     FUL    0.0000
     46 H          -6.1620   -1.5841    0.6637 H         1     FUL    0.0000
     47 H          -6.1196    0.7398   -0.0295 H         1     FUL    0.0000
     48 H          -6.7431    0.3849   -1.6595 H         1     FUL    0.0000
     49 H          -4.0568   -0.5372   -0.4959 H         1     FUL    0.0000
     50 H          -4.6616    2.2626   -0.3736 H         1     FUL    0.0000
     51 H          -3.6141    4.2403   -1.2230 H         1     FUL    0.0000
     52 H          -1.6881    4.1540   -4.1960 H         1     FUL    0.0000
     53 H          -2.0544    2.0476   -4.4470 H         1     FUL    0.0000
     54 H          -1.9780   -0.3602   -4.2741 H         1     FUL    0.0000
     55 H          -3.6976   -0.2773   -4.7404 H         1     FUL    0.0000
     56 H          -3.4071   -2.4232   -3.7910 H         1     FUL    0.0000
     57 H          -1.3791   -2.5868   -2.7918 H         1     FUL    0.0000
     58 H          -2.4596   -2.7679   -1.3946 H         1     FUL    0.0000
     59 H          -1.9293   -0.3160   -0.7821 H         1     FUL    0.0000
     60 H          -0.8236   -0.2544   -2.1939 H         1     FUL    0.0000
     61 H           0.4983   -2.1755   -1.2077 H         1     FUL    0.0000
     62 H          -0.6069   -2.1865    0.2119 H         1     FUL    0.0000
     63 H           0.0370    0.2182    0.7096 H         1     FUL    0.0000
     64 H           1.1599    0.1950   -0.6953 H         1     FUL    0.0000
     65 H           2.4291   -1.7268    0.3779 H         1     FUL    0.0000
     66 H           1.3234   -1.6460    1.7946 H         1     FUL    0.0000
     67 H           2.0477    0.7530    2.2007 H         1     FUL    0.0000
     68 H           3.1692    0.6383    0.7988 H         1     FUL    0.0000
     69 H           4.3749   -1.2811    1.9466 H         1     FUL    0.0000
     70 H           3.2710   -1.1117    3.3567 H         1     FUL    0.0000
     71 H           4.0727    1.2712    3.6793 H         1     FUL    0.0000
     72 H           5.1785    1.0716    2.2723 H         1     FUL    0.0000
     73 H           6.3729   -0.8135    3.4844 H         1     FUL    0.0000
     74 H           5.2366   -0.6319    4.8660 H         1     FUL    0.0000
     75 H           7.0777    2.3609    2.7782 H         1     FUL    0.0000
     76 H           8.3497    1.0995    2.9714 H         1     FUL    0.0000
     77 H           9.4534    2.5036    4.7663 H         1     FUL    0.0000
     78 H           8.1715    3.7529    4.5735 H         1     FUL    0.0000
     79 H           8.8448    4.0490    2.1559 H         1     FUL    0.0000
     80 H          10.1247    2.8087    2.3627 H         1     FUL    0.0000
     81 H          -5.3535   -1.1519   -3.2143 H         1     FUL    0.0000
     82 H          -4.6135   -2.8279   -0.7742 H         1     FUL    0.0000
     83 H          -4.2324   -4.4821   -2.4575 H         1     FUL    0.0000
     84 H          -5.5669   -3.8544   -3.4897 H         1     FUL    0.0000
     85 H          -7.0071   -5.2950   -2.3400 H         1     FUL    0.0000
     86 H          -5.7743   -5.6677   -1.0857 H         1     FUL    0.0000
     87 H          -6.4771   -3.9482    0.3440 H         1     FUL    0.0000
     88 H          -8.7000   -3.5193    0.0965 H         1     FUL    0.0000
@<TRIPOS>BOND
     1     1     2     1
     2     1    42     1
     3     1    43     1
     4     1    44     1
     5     2     3     1
     6     2    37     1
     7     2    40     1
     8     3     4     1
     9     3    45     1
    10     3    46     1
    11     4     5     1
    12     4    47     1
    13     4    48     1
    14     5     6     1
    15     5    36     1
    16     5    49     1
    17     6     7     1
    18     6    12     2
    19     7     8     2
    20     7    50     1
    21     8     9     1
    22     8    51     1
    23     9    10     1
    24     9    11     2
    25    10    52     1
    26    11    12     1
    27    11    53     1
    28    12    13     1
    29    13    14     1
    30    13    54     1
    31    13    55     1
    32    14    15     1
    33    14    36     1
    34    14    56     1
    35    15    16     1
    36    15    57     1
    37    15    58     1
    38    16    17     1
    39    16    59     1
    40    16    60     1
    41    17    18     1
    42    17    61     1
    43    17    62     1
    44    18    19     1
    45    18    63     1
    46    18    64     1
    47    19    20     1
    48    19    65     1
    49    19    66     1
    50    20    21     1
    51    20    67     1
    52    20    68     1
    53    21    22     1
    54    21    69     1
    55    21    70     1
    56    22    23     1
    57    22    71     1
    58    22    72     1
    59    23    24     1
    60    23    73     1
    61    23    74     1
    62    24    25     2
    63    24    26     1
    64    26    27     1
    65    26    75     1
    66    26    76     1
    67    27    28     1
    68    27    77     1
    69    27    78     1
    70    28    29     1
    71    28    79     1
    72    28    80     1
    73    29    30     1
    74    29    31     1
    75    29    32     1
    76    32    33     1
    77    32    34     1
    78    32    35     1
    79    36    37     1
    80    36    81     1
    81    37    38     1
    82    37    82     1
    83    38    39     1
    84    38    83     1
    85    38    84     1
    86    39    40     1
    87    39    85     1
    88    39    86     1
    89    40    41     1
    90    40    87     1
    91    41    88     1
